2019-05-01 23:27:18,283  INFO Gbl:59 JVM: 1.8.0_211; Oracle Corporation; mixed mode; 64-bit
2019-05-01 23:27:18,283  INFO Gbl:63 OS: Windows 10; 10.0; amd64
2019-05-01 23:27:18,283  INFO Gbl:66 CPU cores: 12
2019-05-01 23:27:18,283  INFO Gbl:67 max. Memory: 3584.0MB (3758096384B)
2019-05-01 23:27:18,283  INFO Gbl:105 MATSim-Build: r2e52cf1f54a31596d20f378d536f9dd7a0a860bb (2018-08-25 23:06:50)
2019-05-01 23:27:18,283  INFO ControlerListenerManagerImpl:107 calling notifyStartup on org.matsim.counts.CountsControlerListener
2019-05-01 23:27:18,283  INFO ControlerListenerManagerImpl:107 calling notifyStartup on org.matsim.analysis.ModeStatsControlerListener
2019-05-01 23:27:18,287 DEBUG NetworkRoutingProvider:75 requesting network routing module with routingMode=car;	mode=car
2019-05-01 23:27:18,287  INFO NetworkImpl:167  node # 1
2019-05-01 23:27:18,287  INFO NetworkImpl:167  node # 4
2019-05-01 23:27:18,287  INFO NetworkImpl:167  node # 16
2019-05-01 23:27:18,287  INFO NetworkImpl:167  node # 64
2019-05-01 23:27:18,287  INFO NetworkImpl:167  node # 256
2019-05-01 23:27:18,287  INFO NetworkImpl:167  node # 1024
2019-05-01 23:27:18,291  INFO NetworkImpl:167  node # 4096
2019-05-01 23:27:18,295  INFO NetworkImpl:167  node # 16384
2019-05-01 23:27:18,299  INFO NetworkImpl:163  link # 1
2019-05-01 23:27:18,299  INFO NetworkImpl:163  link # 4
2019-05-01 23:27:18,299  INFO NetworkImpl:163  link # 16
2019-05-01 23:27:18,299  INFO NetworkImpl:163  link # 64
2019-05-01 23:27:18,299  INFO NetworkImpl:163  link # 256
2019-05-01 23:27:18,299  INFO NetworkImpl:163  link # 1024
2019-05-01 23:27:18,307  INFO NetworkImpl:163  link # 4096
2019-05-01 23:27:18,327  INFO NetworkImpl:163  link # 16384
2019-05-01 23:27:18,383  INFO ControlerListenerManagerImpl:107 calling notifyStartup on org.matsim.analysis.ScoreStatsControlerListener
2019-05-01 23:27:18,385  INFO ControlerListenerManagerImpl:110 all ControlerStartupListeners called.
2019-05-01 23:27:18,385  INFO ControlerUtils:58 config dump before iterations start
2019-05-01 23:27:18,387  INFO Config:561 setting context to [file:/C:/Users/tl456/Desktop/Duckie/amod-master/]
2019-05-01 23:27:18,391  INFO ControlerUtils:62 

<?xml version="1.0" encoding="UTF-8"?>
<!DOCTYPE config SYSTEM "http://www.matsim.org/files/dtd/config_v2.dtd">
<config>
<!-- ====================================================================== -->
	<module name="JDEQSim" >
		<param name="carSize" value="7.5" />
		<param name="endTime" value="undefined" />
		<param name="flowCapacityFactor" value="1.0" />
		<param name="gapTravelSpeed" value="15.0" />
		<param name="minimumInFlowCapacity" value="1800.0" />
		<param name="squeezeTime" value="1800.0" />
		<param name="storageCapacityFactor" value="1.0" />
	</module>
<!-- ====================================================================== -->
	<module name="TimeAllocationMutator" >
		<!-- Default:true; Defines whether time mutation changes an activity's duration. -->
		<param name="mutationAffectsDuration" value="true" />
		<!-- Default:1800.0; Defines how many seconds a time mutation can maximally shift a time. -->
		<param name="mutationRange" value="3600.0" />
		<!-- false; Use individual settings for each subpopulation. If enabled but no settings are found, regular settings are uses as fallback. -->
		<param name="useIndividualSettingsForSubpopulations" value="false" />
	</module>
<!-- ====================================================================== -->
	<module name="av" >
		<param name="config" value="av.xml" />
		<param name="parallelRouters" value="4" />
	</module>
<!-- ====================================================================== -->
<!-- ====================================================================== -->
	<module name="changeMode" >
		<param name="ignoreCarAvailability" value="true" />
		<param name="modes" value="car,pt" />
	</module>
<!-- ====================================================================== -->
	<module name="controler" >
		<!-- Sets whether graphs showing some analyses should automatically be generated during the simulation. The generation of graphs usually takes a small amount of time that does not have any weight in big simulations, but add a significant overhead in smaller runs or in test cases where the graphical output is not even requested. -->
		<param name="createGraphs" value="true" />
		<!-- true if at the end of a run, plans, network, config etc should be dumped to a file -->
		<param name="dumpDataAtEnd" value="true" />
		<!-- Default=false. If enabled, the router takes travel times needed for turning moves into account. Cannot be used if the (Fast)AStarLandmarks routing or TravelTimeCalculator.separateModes is enabled. -->
		<param name="enableLinkToLinkRouting" value="false" />
		<!-- Default=xml; Specifies the file format for writing events. Currently supported: xml.
		Multiple values can be specified separated by commas (','). -->
		<param name="eventsFileFormat" value="xml" />
		<!-- Default=0;  -->
		<param name="firstIteration" value="0" />
		<!-- Default=1000;  -->
		<param name="lastIteration" value="0" />
		<!-- Defines which mobility simulation will be used. Currently supported: qsim JDEQSim 
		Depending on the chosen mobsim, you'll have to add additional config modules to configure the corresponding mobsim.
		For 'qsim', add a module 'qsim' to the config. -->
		<param name="mobsim" value="qsim" />
		<param name="outputDirectory" value="output/001" />
		<!-- Possible values: failIfDirectoryExists, overwriteExistingFiles, deleteDirectoryIfExists -->
		<param name="overwriteFiles" value="deleteDirectoryIfExists" />
		<!-- The type of routing (least cost path) algorithm used, may have the values: Dijkstra, FastDijkstra, AStarLandmarks or FastAStarLandmarks -->
		<param name="routingAlgorithmType" value="Dijkstra" />
		<!-- An identifier for the current run which is used as prefix for output files and mentioned in output xml files etc. -->
		<param name="runId" value="null" />
		<!-- Comma-separated list of visualizer output file formats. `transims', `googleearth', and `otfvis'. -->
		<param name="snapshotFormat" value="" />
		<!-- iterationNumber % writeEventsInterval == 0 defines in which iterations events are written to a file. `0' disables events writing completely. -->
		<param name="writeEventsInterval" value="1" />
		<!-- iterationNumber % writePlansInterval == 0 defines (hopefully) in which iterations plans are written to a file. `0' disables plans writing completely.  Some plans in early iterations are always written -->
		<param name="writePlansInterval" value="1" />
		<!-- iterationNumber % writeSnapshotsInterval == 0 defines in which iterations snapshots are written to a file. `0' disables snapshots writing completely -->
		<param name="writeSnapshotsInterval" value="1" />
	</module>
<!-- ====================================================================== -->
	<module name="counts" >
		<!-- Transport modes that will be respected for the counts comparison. 'car' is default, which includes also bussed from the pt simulation module. Use this parameter in combination with 'filterModes' = true! -->
		<param name="analyzedModes" value="car" />
		<!-- Specifies over how many iterations the link volumes should be averaged that are used for the counts comparison. Use 1 or 0 to only use the link volumes of a single iteration. This values cannot be larger than the value specified for writeCountsInterval -->
		<param name="averageCountsOverIterations" value="5" />
		<!-- factor by which to re-scale the simulated values.  necessary when simulation runs with something different from 100%.  needs to be adapted manually -->
		<param name="countsScaleFactor" value="1.0" />
		<!-- distance to distanceFilterCenterNode to include counting stations. The unit of distance is the Euclidean distance implied by the coordinate system -->
		<param name="distanceFilter" value="null" />
		<!-- node id for center node of distance filter -->
		<param name="distanceFilterCenterNode" value="null" />
		<!-- If true, link counts from legs performed on modes not included in the 'analyzedModes' parameter are ignored. -->
		<param name="filterModes" value="false" />
		<!-- The Coordinates Reference System in which the coordinates are expressed in the input file. At import, the coordinates will be converted to the coordinate system defined in "global", and willbe converted back at export. If not specified, no conversion happens. -->
		<param name="inputCRS" value="null" />
		<!-- input file name to counts package -->
		<param name="inputCountsFile" value="null" />
		<!-- possible values: `html', `kml', `txt', `all' -->
		<param name="outputformat" value="txt" />
		<!-- Specifies how often the counts comparison should be calculated and written. -->
		<param name="writeCountsInterval" value="10" />
	</module>
<!-- ====================================================================== -->
	<module name="dvrp" >
		<!-- Mode which will be handled by PassengerEngine and VrpOptimizer (passengers'/customers' perspective) -->
		<param name="mode" value="null" />
		<!-- Mode of which the network will be used for routing vehicles, calculating trave times, etc. (fleet operator's perspective). Default is car. -->
		<param name="networkMode" value="car" />
		<!-- Used for OFFLINE estimation of travel times for VrpOptimizer by means of the exponential moving average. The weighting decrease, alpha, must be in (0,1]. We suggest small values of alpha, e.g. 0.05. The averaging starts from the initial travel time estimates. If not provided, the free-speed TTs is used as the initial estimates -->
		<param name="travelTimeEstimationAlpha" value="0.05" />
		<!-- Used for ONLINE estimation of travel times for VrpOptimizer by combining WithinDayTravelTime and DvrpOfflineTravelTimeEstimator. The beta coefficient is provided in seconds and should be either 0 (no online estimation) or positive (mixed online-offline estimation). For 'beta = 0', only the offline estimate is used: 'onlineTT(t) = offlineTT(t)', where 'offlineTT(t)' in the offline estimate for TT at time 't', For 'beta > 0', estimating future TTs at time 't', uses the currently observed TT to correct the offline estimates is made: where 'currentTT' is the currently observed TT, and 'correction = min(1, max(0, 1 - (time - currentTime) / beta))' The rule is that correction decreases linearly from 1 (when 'time = currentTime') to 0 (when 'time = currentTime + beta' For 'time > currentTime + beta' correction is 0, whereas if 'time < currentTime' it is 1. If beta is sufficiently large, 'beta >> 0', only the currently observed TT is used. -->
		<param name="travelTimeEstimationBeta" value="0.0" />
	</module>
<!-- ====================================================================== -->
	<module name="facilities" >
		<!-- If set to 'true', empty activity option will be created. -->
		<param name="addEmptyActivityOption" value="false" />
		<!-- Default is 'true'. In the case that a facility has no link assigned, the ActivityFacility can be assigned to the closest link. If there should be only one ActivityFacility per link and if no link-assignment should be done, set to 'false'.This will create a new ActivityFacility at the coordinate and the facility will not be assigned to a link. -->
		<param name="assigningLinksToFacilitiesIfMissing" value="true" />
		<!-- If set to 'true', opening time will be assigned to activity facilities from ActivityParams. Default is false. This will NOT override option 'addEmptyActivityOption'. -->
		<param name="assigningOpeningTime" value="false" />
		<!-- This defines how facilities should be created. Possible values: none fromFile setInScenario onePerActivityLocationInPlansFile  -->
		<param name="facilitiesSource" value="none" />
		<!-- A prefix to be used in activityFacility id. -->
		<param name="idPrefix" value="" />
		<!-- The Coordinates Reference System in which the coordinates are expressed in the input file. At import, the coordinates will be converted to the coordinate system defined in "global", and willbe converted back at export. If not specified, no conversion happens. -->
		<param name="inputCRS" value="null" />
		<param name="inputFacilitiesFile" value="null" />
		<param name="inputFacilityAttributesFile" value="null" />
		<!-- Sets whether all activities on a link should be collected within one ActivityFacility. Default is 'true'. If set to 'false', for each coordinate found in the population's activities a separate ActivityFacility will be created. -->
		<param name="oneFacilityPerLink" value="true" />
		<!-- If set to 'true' (which is the default), the link and coordinate attributes are replaced by null reference in the activities, as this information is now available via the facility. -->
		<param name="removingLinksAndCoordinates" value="true" />
	</module>
<!-- ====================================================================== -->
	<module name="global" >
		<param name="coordinateSystem" value="Atlantis" />
		<param name="insistingOnDeprecatedConfigVersion" value="true" />
		<!-- "global" number of threads.  This number is used, e.g., for replanning, but NOT in the mobsim.  This can typically be set to as many cores as you have available, or possibly even slightly more. -->
		<param name="numberOfThreads" value="2" />
		<param name="randomSeed" value="4711" />
	</module>
<!-- ====================================================================== -->
	<module name="households" >
		<param name="inputFile" value="null" />
		<param name="inputHouseholdAttributesFile" value="null" />
	</module>
<!-- ====================================================================== -->
	<module name="linkStats" >
		<!-- Specifies over how many iterations the link volumes should be averaged that are used for the link statistics. Use 1 or 0 to only use the link volumes of a single iteration. This values cannot be larger than the value specified for writeLinkStatsInterval -->
		<param name="averageLinkStatsOverIterations" value="5" />
		<!-- Specifies how often the link stats should be calculated and written. Use 0 to disable the generation of link stats. -->
		<param name="writeLinkStatsInterval" value="10" />
	</module>
<!-- ====================================================================== -->
	<module name="network" >
		<!-- The Coordinates Reference System in which the coordinates are expressed in the input file. At import, the coordinates will be converted to the coordinate system defined in "global", and willbe converted back at export. If not specified, no conversion happens. -->
		<param name="inputCRS" value="null" />
		<param name="inputChangeEventsFile" value="null" />
		<param name="inputNetworkFile" value="C:\Users\tl456\Desktop\Duckie\amod-master\preparedNetwork.xml.gz" />
		<param name="laneDefinitionsFile" value="null" />
		<param name="timeVariantNetwork" value="false" />
	</module>
<!-- ====================================================================== -->
	<module name="parallelEventHandling" >
		<!-- Estimated number of events during mobsim run. An optional optimization hint for the framework. -->
		<param name="estimatedNumberOfEvents" value="null" />
		<!-- Number of threads for parallel events handler. _null_ means the framework decides by itself. 0 is currently not possible. -->
		<param name="numberOfThreads" value="null" />
		<!-- If enabled, each event handler is assigned to its own thread. Note that enabling this feature disabled the numberOfThreads option! This feature is still experimental! -->
		<param name="oneThreadPerHandler" value="false" />
		<!-- If enabled, it is ensured that all events that are created during a time step of the mobility simulation are processed before the next time step is simulated. E.g. neccessary when within-day replanning is used. -->
		<param name="synchronizeOnSimSteps" value="true" />
	</module>
<!-- ====================================================================== -->
	<module name="planCalcScore" >
		<!-- logit model scale parameter. default: 1.  Has name and default value for historical reasons (see Bryan Raney's phd thesis). -->
		<param name="BrainExpBeta" value="1.0" />
		<param name="PathSizeLogitBeta" value="1.0" />
		<!-- fraction of iterations at which MSA score averaging is started. The matsim theory department suggests to use this together with switching off choice set innovation (where a similar switch exists), but it has not been tested yet. -->
		<param name="fractionOfIterationsToStartScoreMSA" value="null" />
		<!-- new_score = (1-learningRate)*old_score + learningRate * score_from_mobsim.  learning rates close to zero emulate score averaging, but slow down initial convergence -->
		<param name="learningRate" value="1.0" />
		<!-- There used to be a plateau between duration=0 and duration=zeroUtilityDuration. This caused durations to evolve to zero once they were below zeroUtilityDuration, causing problems.  Only use this switch if you need to be backwards compatible with some old results.  (changed nov'13) -->
		<param name="usingOldScoringBelowZeroUtilityDuration" value="false" />
		<!-- write a plans file in each iteration directory which contains what each agent actually did, and the score it received. -->
		<param name="writeExperiencedPlans" value="true" />
		<parameterset type="scoringParameters" >
			<param name="earlyDeparture" value="0.0" />
			<param name="lateArrival" value="0.0" />
			<param name="marginalUtilityOfMoney" value="1.0" />
			<param name="performing" value="12.86" />
			<param name="subpopulation" value="null" />
			<param name="utilityOfLineSwitch" value="0.0" />
			<param name="waiting" value="-12.86" />
			<param name="waitingPt" value="-12.86" />
			<parameterset type="activityParams" >
				<param name="activityType" value="dummy" />
				<param name="closingTime" value="undefined" />
				<param name="earliestEndTime" value="undefined" />
				<param name="latestStartTime" value="undefined" />
				<param name="minimalDuration" value="undefined" />
				<param name="openingTime" value="undefined" />
				<param name="priority" value="1.0" />
				<param name="scoringThisActivityAtAll" value="true" />
				<!-- typical duration of activity.  needs to be defined and non-zero.  in sec. -->
				<param name="typicalDuration" value="01:00:00" />
				<!-- method to compute score at typical duration.  Options: | uniform | relative | Use uniform for backwards compatibility (all activities same score; higher proba to drop long acts). -->
				<param name="typicalDurationScoreComputation" value="relative" />
			</parameterset>
			<parameterset type="activityParams" >
				<param name="activityType" value="car interaction" />
				<param name="closingTime" value="undefined" />
				<param name="earliestEndTime" value="undefined" />
				<param name="latestStartTime" value="undefined" />
				<param name="minimalDuration" value="undefined" />
				<param name="openingTime" value="undefined" />
				<param name="priority" value="1.0" />
				<param name="scoringThisActivityAtAll" value="false" />
				<!-- typical duration of activity.  needs to be defined and non-zero.  in sec. -->
				<param name="typicalDuration" value="01:00:00" />
				<!-- method to compute score at typical duration.  Options: | uniform | relative | Use uniform for backwards compatibility (all activities same score; higher proba to drop long acts). -->
				<param name="typicalDurationScoreComputation" value="relative" />
			</parameterset>
			<parameterset type="activityParams" >
				<param name="activityType" value="pt interaction" />
				<param name="closingTime" value="undefined" />
				<param name="earliestEndTime" value="undefined" />
				<param name="latestStartTime" value="undefined" />
				<param name="minimalDuration" value="undefined" />
				<param name="openingTime" value="undefined" />
				<param name="priority" value="1.0" />
				<param name="scoringThisActivityAtAll" value="false" />
				<!-- typical duration of activity.  needs to be defined and non-zero.  in sec. -->
				<param name="typicalDuration" value="01:00:00" />
				<!-- method to compute score at typical duration.  Options: | uniform | relative | Use uniform for backwards compatibility (all activities same score; higher proba to drop long acts). -->
				<param name="typicalDurationScoreComputation" value="relative" />
			</parameterset>
			<parameterset type="activityParams" >
				<param name="activityType" value="bike interaction" />
				<param name="closingTime" value="undefined" />
				<param name="earliestEndTime" value="undefined" />
				<param name="latestStartTime" value="undefined" />
				<param name="minimalDuration" value="undefined" />
				<param name="openingTime" value="undefined" />
				<param name="priority" value="1.0" />
				<param name="scoringThisActivityAtAll" value="false" />
				<!-- typical duration of activity.  needs to be defined and non-zero.  in sec. -->
				<param name="typicalDuration" value="01:00:00" />
				<!-- method to compute score at typical duration.  Options: | uniform | relative | Use uniform for backwards compatibility (all activities same score; higher proba to drop long acts). -->
				<param name="typicalDurationScoreComputation" value="relative" />
			</parameterset>
			<parameterset type="activityParams" >
				<param name="activityType" value="other interaction" />
				<param name="closingTime" value="undefined" />
				<param name="earliestEndTime" value="undefined" />
				<param name="latestStartTime" value="undefined" />
				<param name="minimalDuration" value="undefined" />
				<param name="openingTime" value="undefined" />
				<param name="priority" value="1.0" />
				<param name="scoringThisActivityAtAll" value="false" />
				<!-- typical duration of activity.  needs to be defined and non-zero.  in sec. -->
				<param name="typicalDuration" value="01:00:00" />
				<!-- method to compute score at typical duration.  Options: | uniform | relative | Use uniform for backwards compatibility (all activities same score; higher proba to drop long acts). -->
				<param name="typicalDurationScoreComputation" value="relative" />
			</parameterset>
			<parameterset type="activityParams" >
				<param name="activityType" value="walk interaction" />
				<param name="closingTime" value="undefined" />
				<param name="earliestEndTime" value="undefined" />
				<param name="latestStartTime" value="undefined" />
				<param name="minimalDuration" value="undefined" />
				<param name="openingTime" value="undefined" />
				<param name="priority" value="1.0" />
				<param name="scoringThisActivityAtAll" value="false" />
				<!-- typical duration of activity.  needs to be defined and non-zero.  in sec. -->
				<param name="typicalDuration" value="01:00:00" />
				<!-- method to compute score at typical duration.  Options: | uniform | relative | Use uniform for backwards compatibility (all activities same score; higher proba to drop long acts). -->
				<param name="typicalDurationScoreComputation" value="relative" />
			</parameterset>
			<parameterset type="activityParams" >
				<param name="activityType" value="home" />
				<param name="closingTime" value="undefined" />
				<param name="earliestEndTime" value="undefined" />
				<param name="latestStartTime" value="undefined" />
				<param name="minimalDuration" value="01:00:00" />
				<param name="openingTime" value="undefined" />
				<param name="priority" value="1.0" />
				<param name="scoringThisActivityAtAll" value="true" />
				<!-- typical duration of activity.  needs to be defined and non-zero.  in sec. -->
				<param name="typicalDuration" value="01:00:00" />
				<!-- method to compute score at typical duration.  Options: | uniform | relative | Use uniform for backwards compatibility (all activities same score; higher proba to drop long acts). -->
				<param name="typicalDurationScoreComputation" value="relative" />
			</parameterset>
			<parameterset type="activityParams" >
				<param name="activityType" value="work" />
				<param name="closingTime" value="18:00:00" />
				<param name="earliestEndTime" value="17:00:00" />
				<param name="latestStartTime" value="09:00:00" />
				<param name="minimalDuration" value="08:00:00" />
				<param name="openingTime" value="08:00:00" />
				<param name="priority" value="1.0" />
				<param name="scoringThisActivityAtAll" value="true" />
				<!-- typical duration of activity.  needs to be defined and non-zero.  in sec. -->
				<param name="typicalDuration" value="01:00:00" />
				<!-- method to compute score at typical duration.  Options: | uniform | relative | Use uniform for backwards compatibility (all activities same score; higher proba to drop long acts). -->
				<param name="typicalDurationScoreComputation" value="relative" />
			</parameterset>
			<parameterset type="activityParams" >
				<param name="activityType" value="secondary" />
				<param name="closingTime" value="20:00:00" />
				<param name="earliestEndTime" value="undefined" />
				<param name="latestStartTime" value="undefined" />
				<param name="minimalDuration" value="00:30:00" />
				<param name="openingTime" value="08:00:00" />
				<param name="priority" value="1.0" />
				<param name="scoringThisActivityAtAll" value="true" />
				<!-- typical duration of activity.  needs to be defined and non-zero.  in sec. -->
				<param name="typicalDuration" value="01:00:00" />
				<!-- method to compute score at typical duration.  Options: | uniform | relative | Use uniform for backwards compatibility (all activities same score; higher proba to drop long acts). -->
				<param name="typicalDurationScoreComputation" value="relative" />
			</parameterset>
			<parameterset type="activityParams" >
				<param name="activityType" value="activity" />
				<param name="closingTime" value="undefined" />
				<param name="earliestEndTime" value="undefined" />
				<param name="latestStartTime" value="undefined" />
				<param name="minimalDuration" value="undefined" />
				<param name="openingTime" value="undefined" />
				<param name="priority" value="1.0" />
				<param name="scoringThisActivityAtAll" value="true" />
				<!-- typical duration of activity.  needs to be defined and non-zero.  in sec. -->
				<param name="typicalDuration" value="01:00:00" />
				<!-- method to compute score at typical duration.  Options: | uniform | relative | Use uniform for backwards compatibility (all activities same score; higher proba to drop long acts). -->
				<param name="typicalDurationScoreComputation" value="relative" />
			</parameterset>
			<parameterset type="modeParams" >
				<!-- [utils] alternative-specific constant.  no guarantee that this is used anywhere. default=0 to be backwards compatible for the time being -->
				<param name="constant" value="-2.0" />
				<!-- [utils/m] utility of walking per m, normally negative.  this is on top of the time (dis)utility. -->
				<param name="marginalUtilityOfDistance_util_m" value="0.0" />
				<!-- [utils/hr] additional marginal utility of traveling.  normally negative.  this comes on top of the opportunity cost of time -->
				<param name="marginalUtilityOfTraveling_util_hr" value="0.0" />
				<param name="mode" value="car" />
				<!-- [unit_of_money/m] conversion of distance into money. Normally negative. -->
				<param name="monetaryDistanceRate" value="-3.78E-4" />
			</parameterset>
			<parameterset type="modeParams" >
				<!-- [utils] alternative-specific constant.  no guarantee that this is used anywhere. default=0 to be backwards compatible for the time being -->
				<param name="constant" value="-2.0" />
				<!-- [utils/m] utility of walking per m, normally negative.  this is on top of the time (dis)utility. -->
				<param name="marginalUtilityOfDistance_util_m" value="0.0" />
				<!-- [utils/hr] additional marginal utility of traveling.  normally negative.  this comes on top of the opportunity cost of time -->
				<param name="marginalUtilityOfTraveling_util_hr" value="0.0" />
				<param name="mode" value="pt" />
				<!-- [unit_of_money/m] conversion of distance into money. Normally negative. -->
				<param name="monetaryDistanceRate" value="0.0" />
			</parameterset>
			<parameterset type="modeParams" >
				<!-- [utils] alternative-specific constant.  no guarantee that this is used anywhere. default=0 to be backwards compatible for the time being -->
				<param name="constant" value="0.0" />
				<!-- [utils/m] utility of walking per m, normally negative.  this is on top of the time (dis)utility. -->
				<param name="marginalUtilityOfDistance_util_m" value="0.0" />
				<!-- [utils/hr] additional marginal utility of traveling.  normally negative.  this comes on top of the opportunity cost of time -->
				<param name="marginalUtilityOfTraveling_util_hr" value="0.0" />
				<param name="mode" value="walk" />
				<!-- [unit_of_money/m] conversion of distance into money. Normally negative. -->
				<param name="monetaryDistanceRate" value="0.0" />
			</parameterset>
			<parameterset type="modeParams" >
				<!-- [utils] alternative-specific constant.  no guarantee that this is used anywhere. default=0 to be backwards compatible for the time being -->
				<param name="constant" value="0.0" />
				<!-- [utils/m] utility of walking per m, normally negative.  this is on top of the time (dis)utility. -->
				<param name="marginalUtilityOfDistance_util_m" value="0.0" />
				<!-- [utils/hr] additional marginal utility of traveling.  normally negative.  this comes on top of the opportunity cost of time -->
				<param name="marginalUtilityOfTraveling_util_hr" value="-6.0" />
				<param name="mode" value="bike" />
				<!-- [unit_of_money/m] conversion of distance into money. Normally negative. -->
				<param name="monetaryDistanceRate" value="0.0" />
			</parameterset>
			<parameterset type="modeParams" >
				<!-- [utils] alternative-specific constant.  no guarantee that this is used anywhere. default=0 to be backwards compatible for the time being -->
				<param name="constant" value="0.0" />
				<!-- [utils/m] utility of walking per m, normally negative.  this is on top of the time (dis)utility. -->
				<param name="marginalUtilityOfDistance_util_m" value="0.0" />
				<!-- [utils/hr] additional marginal utility of traveling.  normally negative.  this comes on top of the opportunity cost of time -->
				<param name="marginalUtilityOfTraveling_util_hr" value="-6.0" />
				<param name="mode" value="ride" />
				<!-- [unit_of_money/m] conversion of distance into money. Normally negative. -->
				<param name="monetaryDistanceRate" value="0.0" />
			</parameterset>
			<parameterset type="modeParams" >
				<!-- [utils] alternative-specific constant.  no guarantee that this is used anywhere. default=0 to be backwards compatible for the time being -->
				<param name="constant" value="0.0" />
				<!-- [utils/m] utility of walking per m, normally negative.  this is on top of the time (dis)utility. -->
				<param name="marginalUtilityOfDistance_util_m" value="0.0" />
				<!-- [utils/hr] additional marginal utility of traveling.  normally negative.  this comes on top of the opportunity cost of time -->
				<param name="marginalUtilityOfTraveling_util_hr" value="-6.0" />
				<param name="mode" value="other" />
				<!-- [unit_of_money/m] conversion of distance into money. Normally negative. -->
				<param name="monetaryDistanceRate" value="0.0" />
			</parameterset>
			<parameterset type="modeParams" >
				<!-- [utils] alternative-specific constant.  no guarantee that this is used anywhere. default=0 to be backwards compatible for the time being -->
				<param name="constant" value="8.359" />
				<!-- [utils/m] utility of walking per m, normally negative.  this is on top of the time (dis)utility. -->
				<param name="marginalUtilityOfDistance_util_m" value="0.0" />
				<!-- [utils/hr] additional marginal utility of traveling.  normally negative.  this comes on top of the opportunity cost of time -->
				<param name="marginalUtilityOfTraveling_util_hr" value="0.0" />
				<param name="mode" value="av" />
				<!-- [unit_of_money/m] conversion of distance into money. Normally negative. -->
				<param name="monetaryDistanceRate" value="0.0" />
			</parameterset>
		</parameterset>
	</module>
<!-- ====================================================================== -->
	<module name="plans" >
		<!-- String: minOfDurationAndEndTime tryEndTimeThenDuration endTimeOnly. Anything besides minOfDurationAndEndTime will internally use a different (simpler) version of the TimeAllocationMutator. -->
		<param name="activityDurationInterpretation" value="tryEndTimeThenDuration" />
		<!-- The Coordinates Reference System in which the coordinates are expressed in the input file. At import, the coordinates will be converted to the coordinate system defined in "global", and willbe converted back at export. If not specified, no conversion happens. -->
		<param name="inputCRS" value="null" />
		<!-- Path to a file containing person attributes (required file format: ObjectAttributes). -->
		<param name="inputPersonAttributesFile" value="null" />
		<param name="inputPlansFile" value="C:\Users\tl456\Desktop\Duckie\amod-master\preparedPopulation.xml.gz" />
		<!-- Defines how routes are stored in memory. Currently supported: LinkNetworkRoute, CompressedNetworkRoute. -->
		<param name="networkRouteType" value="LinkNetworkRoute" />
		<!-- (not tested) will remove plan attributes that are presumably not used, such as activityStartTime. default=false -->
		<param name="removingUnnecessaryPlanAttributes" value="false" />
		<!-- Name of the (Object)Attribute defining the subpopulation to which pertains a Person (as freight, through traffic, etc.). The attribute must be of String type.  Change away from default only in desperate situations. -->
		<param name="subpopulationAttributeName" value="subpopulation" />
	</module>
<!-- ====================================================================== -->
	<module name="planscalcroute" >
		<!-- All the modes for which the router is supposed to generate network routes (like car) -->
		<param name="networkModes" value="car" />
		<parameterset type="teleportedModeParameters" >
			<param name="beelineDistanceFactor" value="1.3" />
			<param name="mode" value="bike" />
			<!-- Free-speed factor for a teleported mode. Travel time = teleportedModeFreespeedFactor * <freespeed car travel time>. Insert a line like this for every such mode. Please do not set teleportedModeFreespeedFactor as well as teleportedModeSpeed for the same mode, but if you do, +teleportedModeFreespeedFactor wins over teleportedModeSpeed. -->
			<param name="teleportedModeFreespeedFactor" value="null" />
			<!-- Speed for a teleported mode. Travel time = (<beeline distance> * beelineDistanceFactor) / teleportedModeSpeed. Insert a line like this for every such mode. -->
			<param name="teleportedModeSpeed" value="4.166666666666667" />
		</parameterset>
		<parameterset type="teleportedModeParameters" >
			<param name="beelineDistanceFactor" value="1.3" />
			<param name="mode" value="walk" />
			<!-- Free-speed factor for a teleported mode. Travel time = teleportedModeFreespeedFactor * <freespeed car travel time>. Insert a line like this for every such mode. Please do not set teleportedModeFreespeedFactor as well as teleportedModeSpeed for the same mode, but if you do, +teleportedModeFreespeedFactor wins over teleportedModeSpeed. -->
			<param name="teleportedModeFreespeedFactor" value="null" />
			<!-- Speed for a teleported mode. Travel time = (<beeline distance> * beelineDistanceFactor) / teleportedModeSpeed. Insert a line like this for every such mode. -->
			<param name="teleportedModeSpeed" value="0.8333333333333333" />
		</parameterset>
		<parameterset type="teleportedModeParameters" >
			<param name="beelineDistanceFactor" value="1.3" />
			<param name="mode" value="access_walk" />
			<!-- Free-speed factor for a teleported mode. Travel time = teleportedModeFreespeedFactor * <freespeed car travel time>. Insert a line like this for every such mode. Please do not set teleportedModeFreespeedFactor as well as teleportedModeSpeed for the same mode, but if you do, +teleportedModeFreespeedFactor wins over teleportedModeSpeed. -->
			<param name="teleportedModeFreespeedFactor" value="null" />
			<!-- Speed for a teleported mode. Travel time = (<beeline distance> * beelineDistanceFactor) / teleportedModeSpeed. Insert a line like this for every such mode. -->
			<param name="teleportedModeSpeed" value="0.8333333333333333" />
		</parameterset>
		<parameterset type="teleportedModeParameters" >
			<param name="beelineDistanceFactor" value="1.3" />
			<param name="mode" value="egress_walk" />
			<!-- Free-speed factor for a teleported mode. Travel time = teleportedModeFreespeedFactor * <freespeed car travel time>. Insert a line like this for every such mode. Please do not set teleportedModeFreespeedFactor as well as teleportedModeSpeed for the same mode, but if you do, +teleportedModeFreespeedFactor wins over teleportedModeSpeed. -->
			<param name="teleportedModeFreespeedFactor" value="null" />
			<!-- Speed for a teleported mode. Travel time = (<beeline distance> * beelineDistanceFactor) / teleportedModeSpeed. Insert a line like this for every such mode. -->
			<param name="teleportedModeSpeed" value="0.8333333333333333" />
		</parameterset>
		<parameterset type="teleportedModeParameters" >
			<param name="beelineDistanceFactor" value="1.3" />
			<param name="mode" value="undefined" />
			<!-- Free-speed factor for a teleported mode. Travel time = teleportedModeFreespeedFactor * <freespeed car travel time>. Insert a line like this for every such mode. Please do not set teleportedModeFreespeedFactor as well as teleportedModeSpeed for the same mode, but if you do, +teleportedModeFreespeedFactor wins over teleportedModeSpeed. -->
			<param name="teleportedModeFreespeedFactor" value="null" />
			<!-- Speed for a teleported mode. Travel time = (<beeline distance> * beelineDistanceFactor) / teleportedModeSpeed. Insert a line like this for every such mode. -->
			<param name="teleportedModeSpeed" value="13.88888888888889" />
		</parameterset>
		<parameterset type="teleportedModeParameters" >
			<param name="beelineDistanceFactor" value="1.3" />
			<param name="mode" value="ride" />
			<!-- Free-speed factor for a teleported mode. Travel time = teleportedModeFreespeedFactor * <freespeed car travel time>. Insert a line like this for every such mode. Please do not set teleportedModeFreespeedFactor as well as teleportedModeSpeed for the same mode, but if you do, +teleportedModeFreespeedFactor wins over teleportedModeSpeed. -->
			<param name="teleportedModeFreespeedFactor" value="1.0" />
			<!-- Speed for a teleported mode. Travel time = (<beeline distance> * beelineDistanceFactor) / teleportedModeSpeed. Insert a line like this for every such mode. -->
			<param name="teleportedModeSpeed" value="null" />
		</parameterset>
		<parameterset type="teleportedModeParameters" >
			<param name="beelineDistanceFactor" value="1.3" />
			<param name="mode" value="pt" />
			<!-- Free-speed factor for a teleported mode. Travel time = teleportedModeFreespeedFactor * <freespeed car travel time>. Insert a line like this for every such mode. Please do not set teleportedModeFreespeedFactor as well as teleportedModeSpeed for the same mode, but if you do, +teleportedModeFreespeedFactor wins over teleportedModeSpeed. -->
			<param name="teleportedModeFreespeedFactor" value="2.0" />
			<!-- Speed for a teleported mode. Travel time = (<beeline distance> * beelineDistanceFactor) / teleportedModeSpeed. Insert a line like this for every such mode. -->
			<param name="teleportedModeSpeed" value="null" />
		</parameterset>
	</module>
<!-- ====================================================================== -->
	<module name="ptCounts" >
		<!-- factor by which to re-scale the simulated values.  necessary when simulation runs with something different from 100%.  needs to be adapted manually -->
		<param name="countsScaleFactor" value="1.0" />
		<!-- distance to distanceFilterCenterNode to include counting stations. The unit of distance is the Euclidean distance implied by the coordinate system -->
		<param name="distanceFilter" value="null" />
		<!-- node id for center node of distance filter -->
		<param name="distanceFilterCenterNode" value="null" />
		<!-- input file containing the alighting (getting off) counts for pt -->
		<param name="inputAlightCountsFile" value="null" />
		<!-- input file containing the boarding (getting on) counts for pt -->
		<param name="inputBoardCountsFile" value="null" />
		<!-- input file containing the occupancy counts for pt -->
		<param name="inputOccupancyCountsFile" value="null" />
		<!-- possible values: `html', `kml', `txt', `all' -->
		<param name="outputformat" value="null" />
		<!-- every how many iterations (starting with 0) counts comparisons are generated -->
		<param name="ptCountsInterval" value="10" />
	</module>
<!-- ====================================================================== -->
	<module name="qsim" >
		<!-- If set to true, creates a vehicle for each person corresponding to every network mode. However, this will be overridden if vehicle source is fromVehiclesData. -->
		<param name="creatingVehiclesForAllNetworkModes" value="true" />
		<param name="endTime" value="30:00:00" />
		<param name="flowCapacityFactor" value="1.0E12" />
		<!-- decides if waiting vehicles enter the network after or before the already driving vehicles were moved. Default: false -->
		<param name="insertingWaitingVehiclesBeforeDrivingVehicles" value="false" />
		<!-- If link dynamics is set as SeepageQ, set to false if all seep modes should perform seepage. Default is true (better option). -->
		<param name="isRestrictingSeepage" value="true" />
		<!-- If link dynamics is set as SeepageQ, set to true if seep mode do not consumes any space on the link. Default is false. -->
		<param name="isSeepModeStorageFree" value="false" />
		<!-- default: FIFO; options: FIFO PassingQ SeepageQ -->
		<param name="linkDynamics" value="FIFO" />
		<!-- The (initial) width of the links of the network. Use positive floating point values. This is used only for visualisation. -->
		<param name="linkWidth" value="30.0" />
		<!-- [comma-separated list] Defines which modes are congested modes. Technically, these are the modes that the departure handler of the netsimengine handles.  Effective cell size, effective lane width, flow capacity factor, and storage capacity factor need to be set with diligence.  Need to be vehicular modes to make sense. -->
		<param name="mainMode" value="car" />
		<!-- Shortens a link in the visualization, i.e. its start and end point are moved into towards the center. Does not affect traffic flow.  -->
		<param name="nodeOffset" value="0.0" />
		<!-- Number of threads used for the QSim.  Note that this setting is independent from the "global" threads setting.  In contrast to earlier versions, the non-parallel special version is no longer there. -->
		<param name="numberOfThreads" value="4" />
		<!-- Boolean. `true': stuck vehicles are removed, aborting the plan; `false': stuck vehicles are forced into the next link. `false' is probably the better choice. -->
		<param name="removeStuckVehicles" value="false" />
		<!-- If link dynamics is set as SeepageQ, set a seep mode. Default is bike. -->
		<param name="seepMode" value="bike" />
		<!-- Possible values: minOfEndtimeAndMobsimFinished, onlyUseEndtime -->
		<param name="simEndtimeInterpretation" value="null" />
		<!-- Options: maxOfStarttimeAndEarliestActivityEnd onlyUseStarttime  -->
		<param name="simStarttimeInterpretation" value="maxOfStarttimeAndEarliestActivityEnd" />
		<!-- snapshotStyle. One of: equiDist queue withHoles withHolesAndShowHoles kinematicWaves  -->
		<param name="snapshotStyle" value="equiDist" />
		<param name="snapshotperiod" value="00:00:10" />
		<param name="startTime" value="00:00:00" />
		<param name="storageCapacityFactor" value="1.0E12" />
		<!-- time in seconds.  Time after which the frontmost vehicle on a link is called `stuck' if it does not move. -->
		<param name="stuckTime" value="3600.0" />
		<param name="timeStepSize" value="00:00:01" />
		<!-- options: queue withHoles kinematicWaves  -->
		<param name="trafficDynamics" value="queue" />
		<!-- Set this parameter to true if lanes should be used, false if not. -->
		<param name="useLanes" value="false" />
		<!-- If a route does not reference a vehicle, agents will use the vehicle with the same id as their own. -->
		<param name="usePersonIdForMissingVehicleId" value="true" />
		<!-- If false, the qsim accumulates fractional flows up to one flow unit in every time step.  If true, flows are updated only if an agent wants to enter the link or an agent is added to buffer. Default is true. -->
		<param name="usingFastCapacityUpdate" value="true" />
		<!-- if the qsim should use as many runners as there are threads (Christoph's dissertation version) or more of them, together with a thread pool (seems to be faster in some situations, but is not tested). -->
		<param name="usingThreadpool" value="true" />
		<!-- Defines what happens if an agent wants to depart, but the specified vehicle is not available. One of: teleport wait exception  -->
		<param name="vehicleBehavior" value="teleport" />
		<!-- If vehicles should all be the same default vehicle, or come from the vehicles file, or something else.  Possible values:  defaultVehicle modeVehicleTypesFromVehiclesData fromVehiclesData -->
		<param name="vehiclesSource" value="defaultVehicle" />
	</module>
<!-- ====================================================================== -->
	<module name="scenario" >
	</module>
<!-- ====================================================================== -->
	<module name="strategy" >
		<!-- the external executable will be called with a config file as argument.  This is the pathname to a possible skeleton config, to which additional information will be added.  Can be null. -->
		<param name="ExternalExeConfigTemplate" value="null" />
		<!-- time out value (in seconds) after which matsim will consider the external strategy as failed -->
		<param name="ExternalExeTimeOut" value="3600" />
		<!-- root directory for temporary files generated by the external executable. Provided as a service; I don't think this is used by MATSim. -->
		<param name="ExternalExeTmpFileRootDir" value="null" />
		<!-- fraction of iterations where innovative strategies are switched off.  Something link 0.8 should be good.  E.g. if you run from iteration 400 to iteration 500, innovation is switched off at iteration 480 -->
		<param name="fractionOfIterationsToDisableInnovation" value="Infinity" />
		<!-- maximum number of plans per agent.  ``0'' means ``infinity''.  Currently (2010), ``5'' is a good number -->
		<param name="maxAgentPlanMemorySize" value="5" />
		<!-- strategyName of PlanSelector for plans removal.  Possible defaults: WorstPlanSelector SelectRandom SelectExpBetaForRemoval ChangeExpBetaForRemoval PathSizeLogitSelectorForRemoval . The current default, WorstPlanSelector is not a good choice from a discrete choice theoretical perspective. Alternatives, however, have not been systematically tested. kai, feb'12 -->
		<param name="planSelectorForRemoval" value="WorstPlanSelector" />
		<parameterset type="strategysettings" >
			<!-- iteration after which strategy will be disabled.  most useful for ``innovative'' strategies (new routes, new times, ...). Normally, better use fractionOfIterationsToDisableInnovation -->
			<param name="disableAfterIteration" value="-1" />
			<!-- path to external executable (if applicable) -->
			<param name="executionPath" value="null" />
			<!-- strategyName of strategy.  Possible default names: SelectRandomBestScoreKeepLastSelectedChangeExpBetaSelectExpBetaSelectPathSizeLogit (selectors), ReRoute TimeAllocationMutator ChangeLegMode TimeAllocationMutator_ReRoute ChangeSingleLegMode ChangeSingleTripMode SubtourModeChoice ChangeTripMode TripSubtourModeChoice  (innovative strategies). -->
			<param name="strategyName" value="ChangeExpBeta" />
			<!-- subpopulation to which the strategy applies. "null" refers to the default population, that is, the set of persons for which no explicit subpopulation is defined (ie no subpopulation attribute) -->
			<param name="subpopulation" value="null" />
			<!-- weight of a strategy: for each agent, a strategy will be selected with a probability proportional to its weight -->
			<param name="weight" value="0.75" />
		</parameterset>
		<parameterset type="strategysettings" >
			<!-- iteration after which strategy will be disabled.  most useful for ``innovative'' strategies (new routes, new times, ...). Normally, better use fractionOfIterationsToDisableInnovation -->
			<param name="disableAfterIteration" value="420" />
			<!-- path to external executable (if applicable) -->
			<param name="executionPath" value="null" />
			<!-- strategyName of strategy.  Possible default names: SelectRandomBestScoreKeepLastSelectedChangeExpBetaSelectExpBetaSelectPathSizeLogit (selectors), ReRoute TimeAllocationMutator ChangeLegMode TimeAllocationMutator_ReRoute ChangeSingleLegMode ChangeSingleTripMode SubtourModeChoice ChangeTripMode TripSubtourModeChoice  (innovative strategies). -->
			<param name="strategyName" value="TimeAllocationMutator" />
			<!-- subpopulation to which the strategy applies. "null" refers to the default population, that is, the set of persons for which no explicit subpopulation is defined (ie no subpopulation attribute) -->
			<param name="subpopulation" value="null" />
			<!-- weight of a strategy: for each agent, a strategy will be selected with a probability proportional to its weight -->
			<param name="weight" value="0.05" />
		</parameterset>
	</module>
<!-- ====================================================================== -->
	<module name="subtourModeChoice" >
		<!-- Defines the chain-based modes, seperated by commas -->
		<param name="chainBasedModes" value="car" />
		<!-- Defines whether car availability must be considered or not. A agent has no car only if it has no license, or never access to a car -->
		<param name="considerCarAvailability" value="true" />
		<!-- Defines all the modes available, including chain-based modes, seperated by commas -->
		<param name="modes" value="car,pt,walk,av" />
	</module>
<!-- ====================================================================== -->
	<module name="transit" >
		<!-- The Coordinates Reference System in which the coordinates are expressed in the input file. At import, the coordinates will be converted to the coordinate system defined in "global", and willbe converted back at export. If not specified, no conversion happens. -->
		<param name="inputScheduleCRS" value="null" />
		<!-- Optional input file containing additional attributes for transit lines, stored as ObjectAttributes. -->
		<param name="transitLinesAttributesFile" value="null" />
		<!-- Comma-separated list of transportation modes that are handled as transit. Defaults to 'pt'. -->
		<param name="transitModes" value="pt" />
		<!-- Input file containing the transit schedule to be simulated. -->
		<param name="transitScheduleFile" value="null" />
		<!-- Optional input file containing additional attributes for transit stop facilities, stored as ObjectAttributes. -->
		<param name="transitStopsAttributesFile" value="null" />
		<!-- Set this parameter to true if transit should be simulated, false if not. -->
		<param name="useTransit" value="false" />
		<!-- Input file containing the vehicles used by the departures in the transit schedule. -->
		<param name="vehiclesFile" value="null" />
	</module>
<!-- ====================================================================== -->
	<module name="transitRouter" >
		<!-- additional time the router allocates when a line switch happens. Can be interpreted as a 'safety' time that agents need to safely transfer from one line to another -->
		<param name="additionalTransferTime" value="0.0" />
		<!-- Factor with which direct walk generalized cost is multiplied before it is compared to the pt generalized cost.  Set to a very high value to reduce direct walk results. -->
		<param name="directWalkFactor" value="1.0" />
		<!-- step size to increase searchRadius if no stops are found -->
		<param name="extensionRadius" value="500.0" />
		<!-- maximum beeline distance between stops that agents could transfer to by walking -->
		<param name="maxBeelineWalkConnectionDistance" value="300.0" />
		<!-- the radius in which stop locations are searched, given a start or target coordinate -->
		<param name="searchRadius" value="1500.0" />
	</module>
<!-- ====================================================================== -->
	<module name="travelTimeCalculator" >
		<!-- Transport modes that will be respected by the travel time collector. 'car' is default, which includes also busses from the pt simulation module. Use this parameter in combination with 'filterModes' = true! -->
		<param name="analyzedModes" value="car" />
		<param name="calculateLinkToLinkTravelTimes" value="false" />
		<param name="calculateLinkTravelTimes" value="true" />
		<!-- If true, link travel times from legs performed on modes not included in the 'analyzedModes' parameter are ignored. -->
		<param name="filterModes" value="false" />
		<!-- The lenght (in sec) of the time period that is splited into time bins; an additional time bin is created to aggregate all travel times collected after maxTime -->
		<param name="maxTime" value="108000" />
		<!-- If true, link travel times are measured and calculated separately for each mode in analyzedModes. Other modes are ignored. If true, filterModes has no effect. -->
		<param name="separateModes" value="false" />
		<!-- How to deal with congested time bins that have no link entry events. `optimistic' assumes free speed (too optimistic); 'experimental_LastMile' is experimental and probably too pessimistic. -->
		<param name="travelTimeAggregator" value="optimistic" />
		<!-- The size of the time bin (in sec) into which the link travel times are aggregated for the router -->
		<param name="travelTimeBinSize" value="900" />
		<!-- possible values: TravelTimeCalculatorArray TravelTimeCalculatorHashMap  -->
		<param name="travelTimeCalculator" value="TravelTimeCalculatorArray" />
		<!-- How to deal with link entry times at different positions during the time bin. Currently supported: average, linearinterpolation -->
		<param name="travelTimeGetter" value="average" />
	</module>
<!-- ====================================================================== -->
	<module name="vehicles" >
		<param name="vehiclesFile" value="null" />
	</module>
<!-- ====================================================================== -->
	<module name="vspExperimental" >
		<!-- (do not use except of you have to) There was a problem with pt interaction scoring.  Some people solved it by overwriting the parameters of the pt interaction activity type.  Doing this now throws an Exception.  If you still insist on doing this, set the following to true. -->
		<param name="isAbleToOverwritePtInteractionParams" value="false" />
		<param name="isGeneratingBoardingDeniedEvent" value="false" />
		<!-- if an approximation of the opportunity cost of time is included into the radius calculation for location choice.`true' will be faster, but it is an approximation.  Default is `true'; `false' is available for backwards compatibility. -->
		<param name="isUsingOpportunityCostOfTimeForLocationChoice" value="true" />
		<param name="logitScaleParamForPlansRemoval" value="1.0" />
		<!-- Options: | ignore | info | warn | abort | .  When violating VSP defaults, this results in nothing, logfile infos, logfile warnings, or aborts.  Members of VSP should use `abort' or talk to kai. -->
		<param name="vspDefaultsCheckingLevel" value="ignore" />
		<!-- if true then writes output_events in output directory.  default is `false'. Will only work when lastIteration is multiple of events writing interval -->
		<param name="writingOutputEvents" value="true" />
	</module>
<!-- ====================================================================== -->

</config>

2019-05-01 23:27:18,391  INFO ControlerUtils:63 Complete config dump done.
2019-05-01 23:27:18,391  INFO ControlerUtils:64 Checking consistency of config...
2019-05-01 23:27:18,391  WARN PlanCalcScoreConfigGroup$ScoringParameterSet:1380 marginal utl of wait set to: -12.86. Setting this different from zero is discouraged since there is already the marginal utility of time as a resource. The parameter was also used in the past for pt routing; if you did that, consider setting the new parameter waitingPt instead.
2019-05-01 23:27:18,394  INFO VspConfigConsistencyCheckerImpl:58 NOT running vsp config consistency check because vsp defaults checking level is set to IGNORE
2019-05-01 23:27:18,394  INFO ControlerUtils:66 Checking consistency of config done.
2019-05-01 23:27:18,395  INFO PrepareForSimImpl:75 Network seems to be multimodal. Create car-only network which is handed over to PersonPrepareForSim.
2019-05-01 23:27:18,395  INFO NetworkImpl:167  node # 1
2019-05-01 23:27:18,395  INFO NetworkImpl:167  node # 4
2019-05-01 23:27:18,395  INFO NetworkImpl:167  node # 16
2019-05-01 23:27:18,395  INFO NetworkImpl:167  node # 64
2019-05-01 23:27:18,395  INFO NetworkImpl:167  node # 256
2019-05-01 23:27:18,396  INFO NetworkImpl:167  node # 1024
2019-05-01 23:27:18,396  INFO NetworkImpl:167  node # 4096
2019-05-01 23:27:18,396  INFO NetworkImpl:167  node # 16384
2019-05-01 23:27:18,400  INFO NetworkImpl:163  link # 1
2019-05-01 23:27:18,400  INFO NetworkImpl:163  link # 4
2019-05-01 23:27:18,400  INFO NetworkImpl:163  link # 16
2019-05-01 23:27:18,400  INFO NetworkImpl:163  link # 64
2019-05-01 23:27:18,400  INFO NetworkImpl:163  link # 256
2019-05-01 23:27:18,400  INFO NetworkImpl:163  link # 1024
2019-05-01 23:27:18,404  INFO NetworkImpl:163  link # 4096
2019-05-01 23:27:18,416  INFO NetworkImpl:163  link # 16384
2019-05-01 23:27:18,464 DEBUG NetworkRoutingProvider:75 requesting network routing module with routingMode=car;	mode=car
2019-05-01 23:27:18,476 DEBUG NetworkRoutingProvider:75 requesting network routing module with routingMode=car;	mode=car
2019-05-01 23:27:18,488  INFO Counter:61 [PersonPrepareForSim] handled person # 1
2019-05-01 23:27:18,492  INFO Counter:61 [PersonPrepareForSim] handled person # 4
2019-05-01 23:27:18,488  INFO Counter:61 [PersonPrepareForSim] handled person # 2
2019-05-01 23:27:18,492  INFO Counter:61 [PersonPrepareForSim] handled person # 8
2019-05-01 23:27:18,492  INFO Counter:61 [PersonPrepareForSim] handled person # 16
2019-05-01 23:27:18,492  INFO Counter:61 [PersonPrepareForSim] handled person # 32
2019-05-01 23:27:18,492  INFO Counter:61 [PersonPrepareForSim] handled person # 64
2019-05-01 23:27:18,492  INFO Counter:61 [PersonPrepareForSim] handled person # 128
2019-05-01 23:27:18,492  INFO Counter:61 [PersonPrepareForSim] handled person # 256
2019-05-01 23:27:18,496  INFO Counter:61 [PersonPrepareForSim] handled person # 512
2019-05-01 23:27:18,496  INFO Counter:61 [PersonPrepareForSim] handled person # 1024
2019-05-01 23:27:18,500  INFO Counter:61 [PersonPrepareForSim] handled person # 2048
2019-05-01 23:27:18,508  INFO Counter:61 [PersonPrepareForSim] handled person # 4096
2019-05-01 23:27:18,516  INFO Counter:61 [PersonPrepareForSim] handled person # 8192
2019-05-01 23:27:18,532  INFO Counter:61 [PersonPrepareForSim] handled person # 16384
2019-05-01 23:27:18,544  INFO Counter:67 [PersonPrepareForSim] handled person # 21562
2019-05-01 23:27:18,556  INFO Counter:61  vehicles # 1
2019-05-01 23:27:18,556  INFO Counter:61  vehicles # 2
2019-05-01 23:27:18,556  INFO Counter:61  vehicles # 4
2019-05-01 23:27:18,556  INFO Counter:61  vehicles # 8
2019-05-01 23:27:18,556  INFO Counter:61  vehicles # 16
2019-05-01 23:27:18,556  INFO Counter:61  vehicles # 32
2019-05-01 23:27:18,556  INFO Counter:61  vehicles # 64
2019-05-01 23:27:18,556  INFO Counter:61  vehicles # 128
2019-05-01 23:27:18,556  INFO Counter:61  vehicles # 256
2019-05-01 23:27:18,556  INFO Counter:61  vehicles # 512
2019-05-01 23:27:18,556  INFO Counter:61  vehicles # 1024
2019-05-01 23:27:18,560  INFO Counter:61  vehicles # 2048
2019-05-01 23:27:18,560  INFO Counter:61  vehicles # 4096
2019-05-01 23:27:18,560  INFO Counter:61  vehicles # 8192
2019-05-01 23:27:18,564  INFO Counter:61  vehicles # 16384
2019-05-01 23:27:18,580  INFO AbstractController:126 ###################################################
2019-05-01 23:27:18,580  INFO AbstractController:127 ### ITERATION 0 BEGINS
2019-05-01 23:27:18,584  INFO ControlerListenerManagerImpl:145 calling notifyIterationStarts on org.matsim.analysis.LegHistogramListener
2019-05-01 23:27:18,584  INFO ControlerListenerManagerImpl:145 calling notifyIterationStarts on org.matsim.analysis.LinkStatsControlerListener
2019-05-01 23:27:18,584  INFO ControlerListenerManagerImpl:145 calling notifyIterationStarts on ch.ethz.idsc.amodeus.net.DatabaseIterationStartsListener
2019-05-01 23:27:18,584  INFO ControlerListenerManagerImpl:145 calling notifyIterationStarts on org.matsim.core.replanning.ReplanningContextImpl
2019-05-01 23:27:18,584  INFO ControlerListenerManagerImpl:145 calling notifyIterationStarts on org.matsim.core.scoring.ExperiencedPlansServiceImpl$1
2019-05-01 23:27:18,588  INFO ControlerListenerManagerImpl:145 calling notifyIterationStarts on org.matsim.core.scoring.ScoringFunctionsForPopulation$1
2019-05-01 23:27:18,676  INFO ControlerListenerManagerImpl:148 [it.0] all ControlerIterationStartsListeners called.
2019-05-01 23:27:18,688  INFO ControlerListenerManagerImpl:224 calling notifyBeforeMobsim on org.matsim.core.controler.corelisteners.EventsHandlingImpl
2019-05-01 23:27:18,688  INFO EventsManagerImpl:170 resetting Event-Handlers
2019-05-01 23:27:18,688  INFO EventsManagerImpl:177   org.matsim.core.trafficmonitoring.TravelTimeCalculator
2019-05-01 23:27:18,688  INFO EventsManagerImpl:177   org.matsim.core.scoring.EventsToLegs
2019-05-01 23:27:18,688  INFO EventsManagerImpl:177   org.matsim.analysis.VolumesAnalyzer
2019-05-01 23:27:18,688  INFO EventsManagerImpl:177   org.matsim.core.scoring.EventsToActivities
2019-05-01 23:27:18,688  INFO EventsManagerImpl:177   org.matsim.analysis.CalcLegTimes
2019-05-01 23:27:18,688  INFO EventsManagerImpl:177   org.matsim.analysis.LegHistogram
2019-05-01 23:27:18,688  INFO EventsManagerImpl:177   org.matsim.core.scoring.ScoringFunctionsForPopulation
2019-05-01 23:27:18,692  INFO EventsManagerImpl:144 adding Event-Handler: org.matsim.core.events.algorithms.EventWriterXML
2019-05-01 23:27:18,692  INFO EventsManagerImpl:148   org.matsim.core.events.algorithms.EventWriter
2019-05-01 23:27:18,692  INFO EventsManagerImpl:148   org.matsim.core.events.handler.BasicEventHandler
2019-05-01 23:27:18,692  INFO EventsManagerImpl:207     > org.matsim.api.core.v01.events.Event
2019-05-01 23:27:18,692  INFO EventsManagerImpl:156 
2019-05-01 23:27:18,692  INFO EventsManagerImpl:144 adding Event-Handler: org.matsim.core.events.algorithms.EventWriterXML
2019-05-01 23:27:18,692  INFO EventsManagerImpl:148   org.matsim.core.events.algorithms.EventWriter
2019-05-01 23:27:18,692  INFO EventsManagerImpl:148   org.matsim.core.events.handler.BasicEventHandler
2019-05-01 23:27:18,692  INFO EventsManagerImpl:207     > org.matsim.api.core.v01.events.Event
2019-05-01 23:27:18,692  INFO EventsManagerImpl:156 
2019-05-01 23:27:18,692  INFO ControlerListenerManagerImpl:224 calling notifyBeforeMobsim on org.matsim.core.controler.corelisteners.PlansDumpingImpl
2019-05-01 23:27:18,692  INFO PlansDumpingImpl:75 dumping plans...
2019-05-01 23:27:18,704  INFO Counter:61 [PopulationWriter] dumped person # 1
2019-05-01 23:27:18,704  INFO Counter:61 [PopulationWriter] dumped person # 2
2019-05-01 23:27:18,704  INFO Counter:61 [PopulationWriter] dumped person # 4
2019-05-01 23:27:18,704  INFO Counter:61 [PopulationWriter] dumped person # 8
2019-05-01 23:27:18,704  INFO Counter:61 [PopulationWriter] dumped person # 16
2019-05-01 23:27:18,704  INFO Counter:61 [PopulationWriter] dumped person # 32
2019-05-01 23:27:18,704  INFO Counter:61 [PopulationWriter] dumped person # 64
2019-05-01 23:27:18,708  INFO Counter:61 [PopulationWriter] dumped person # 128
2019-05-01 23:27:18,708  INFO Counter:61 [PopulationWriter] dumped person # 256
2019-05-01 23:27:18,716  INFO Counter:61 [PopulationWriter] dumped person # 512
2019-05-01 23:27:18,752  INFO Counter:61 [PopulationWriter] dumped person # 1024
2019-05-01 23:27:18,764  INFO Counter:61 [PopulationWriter] dumped person # 2048
2019-05-01 23:27:18,792  INFO Counter:61 [PopulationWriter] dumped person # 4096
2019-05-01 23:27:18,847  INFO Counter:61 [PopulationWriter] dumped person # 8192
2019-05-01 23:27:18,955  INFO Counter:61 [PopulationWriter] dumped person # 16384
2019-05-01 23:27:19,031  INFO PopulationWriter:139 Population written to: output/001/ITERS/it.0/0.plans.xml.gz
2019-05-01 23:27:19,035  INFO Counter:67 [PopulationWriter] dumped person # 21562
2019-05-01 23:27:19,035  INFO PlansDumpingImpl:92 finished plans dump.
2019-05-01 23:27:19,035  INFO ControlerListenerManagerImpl:229 calling notifyBeforeMobsim on org.matsim.core.population.VspPlansCleaner
2019-05-01 23:27:19,051  INFO ControlerListenerManagerImpl:229 calling notifyBeforeMobsim on ch.ethz.matsim.av.data.AVLoader
2019-05-01 23:27:19,051  INFO ControlerListenerManagerImpl:232 [it.0] all ControlerBeforeMobsimListeners called.
2019-05-01 23:27:19,095  INFO MobsimListenerManager:49 calling addQueueSimulationListener
2019-05-01 23:27:19,095  INFO MobsimListenerManager:53   assigned class org.matsim.core.mobsim.framework.listeners.MobsimListener to interface org.matsim.core.mobsim.framework.listeners.MobsimListener
2019-05-01 23:27:19,095  INFO MobsimListenerManager:53   assigned class org.matsim.core.mobsim.framework.listeners.MobsimListener to interface org.matsim.core.mobsim.framework.listeners.MobsimBeforeCleanupListener
2019-05-01 23:27:19,095  INFO MobsimListenerManager:53   assigned class org.matsim.core.mobsim.framework.listeners.MobsimListener to interface org.matsim.contrib.dvrp.trafficmonitoring.DvrpOfflineTravelTimeEstimator
2019-05-01 23:27:19,095  INFO MobsimListenerManager:49 calling addQueueSimulationListener
2019-05-01 23:27:19,095  INFO MobsimListenerManager:53   assigned class org.matsim.core.mobsim.framework.listeners.MobsimListener to interface org.matsim.core.mobsim.framework.listeners.MobsimAfterSimStepListener
2019-05-01 23:27:19,095  INFO MobsimListenerManager:53   assigned class org.matsim.core.mobsim.framework.listeners.MobsimListener to interface org.matsim.vis.snapshotwriters.SnapshotWriterManager
2019-05-01 23:27:19,095  INFO MobsimListenerManager:53   assigned class org.matsim.core.mobsim.framework.listeners.MobsimListener to interface org.matsim.core.mobsim.framework.listeners.MobsimInitializedListener
2019-05-01 23:27:19,095  INFO MobsimListenerManager:53   assigned class org.matsim.core.mobsim.framework.listeners.MobsimListener to interface org.matsim.core.mobsim.framework.listeners.MobsimListener
2019-05-01 23:27:19,095  INFO MobsimListenerManager:53   assigned class org.matsim.core.mobsim.framework.listeners.MobsimListener to interface org.matsim.core.mobsim.framework.listeners.MobsimBeforeCleanupListener
2019-05-01 23:27:19,175  WARN QueueWithBuffer:377 Link 13574 too small: enlarge storage capacity from: 2.334230048071345E13 Vehicles to: 3.5013450721070176E13 Vehicles.  This is not fatal, but modifies the traffic flow dynamics.
2019-05-01 23:27:19,227  WARN QueueWithBuffer:377 Link 47375 too small: enlarge storage capacity from: 6.263719665683171E12 Vehicles to: 9.395579498524756E12 Vehicles.  This is not fatal, but modifies the traffic flow dynamics.
2019-05-01 23:27:19,231  WARN QueueWithBuffer:377 Link 56041 too small: enlarge storage capacity from: 6.736354295196894E13 Vehicles to: 7.727587384134608E13 Vehicles.  This is not fatal, but modifies the traffic flow dynamics.
2019-05-01 23:27:19,263  INFO Injector:80 === printInjector start ===
2019-05-01 23:27:19,263  INFO Injector:84 org.matsim.core.mobsim.qsim.qnetsimengine.VehicularDepartureHandler 
2019-05-01 23:27:19,263  INFO Injector:85   --> provider: Key[type=org.matsim.core.mobsim.qsim.qnetsimengine.QNetsimEngineDepartureHandlerProvider, annotation=[none]][Scopes.SINGLETON]
2019-05-01 23:27:19,263  INFO Injector:86   --> source: org.matsim.core.mobsim.qsim.qnetsimengine.QNetsimEnginePlugin$1.configure(QNetsimEnginePlugin.java:25)
2019-05-01 23:27:19,263  INFO Injector:88   --> scope: eager singleton
2019-05-01 23:27:19,263  INFO Injector:92 
2019-05-01 23:27:19,263  INFO Injector:84 org.matsim.core.mobsim.qsim.agents.AgentFactory 
2019-05-01 23:27:19,263  INFO Injector:85   --> provider: FactoryProxy{key=Key[type=org.matsim.core.mobsim.qsim.agents.AgentFactory, annotation=[none]], provider=com.google.inject.internal.ConstructorBindingImpl$Factory@6c78bb9a}[Scopes.SINGLETON]
2019-05-01 23:27:19,263  INFO Injector:86   --> source: org.matsim.core.mobsim.qsim.PopulationPlugin$1.configure(PopulationPlugin.java:30)
2019-05-01 23:27:19,263  INFO Injector:88   --> scope: eager singleton
2019-05-01 23:27:19,263  INFO Injector:92 
2019-05-01 23:27:19,263  INFO Injector:84 org.matsim.contrib.dvrp.vrpagent.VrpLegs$LegCreator 
2019-05-01 23:27:19,267  INFO Injector:85   --> provider: @Provides ch.ethz.idsc.amodeus.matsim.mod.AmodeusQSimModule$1.provideLegCreator(AmodeusQSimModule.java:32)[Scopes.SINGLETON]
2019-05-01 23:27:19,267  INFO Injector:86   --> source: org.matsim.contrib.dvrp.vrpagent.VrpLegs$LegCreator ch.ethz.idsc.amodeus.matsim.mod.AmodeusQSimModule$1.provideLegCreator(ch.ethz.matsim.av.schedule.AVOptimizer,org.matsim.core.mobsim.qsim.QSim)
2019-05-01 23:27:19,267  INFO Injector:88   --> scope: Scopes.SINGLETON
2019-05-01 23:27:19,267  INFO Injector:92 
2019-05-01 23:27:19,267  INFO Injector:84 org.matsim.contrib.dvrp.passenger.PassengerEngine 
2019-05-01 23:27:19,267  INFO Injector:85   --> provider: @Provides ch.ethz.matsim.av.framework.AVQSimModule.providePassengerEngine(AVQSimModule.java:53)[Scopes.SINGLETON]
2019-05-01 23:27:19,267  INFO Injector:86   --> source: public org.matsim.contrib.dvrp.passenger.PassengerEngine ch.ethz.matsim.av.framework.AVQSimModule.providePassengerEngine(org.matsim.core.api.experimental.events.EventsManager,ch.ethz.matsim.av.passenger.AVRequestCreator,ch.ethz.matsim.av.schedule.AVOptimizer,org.matsim.api.core.v01.network.Network)
2019-05-01 23:27:19,267  INFO Injector:88   --> scope: Scopes.SINGLETON
2019-05-01 23:27:19,267  INFO Injector:92 
2019-05-01 23:27:19,267  INFO Injector:84 org.matsim.contrib.dvrp.vrpagent.VrpAgentSource 
2019-05-01 23:27:19,267  INFO Injector:85   --> provider: @Provides ch.ethz.matsim.av.framework.AVQSimModule.provideAgentSource(AVQSimModule.java:66)[Scopes.SINGLETON]
2019-05-01 23:27:19,267  INFO Injector:86   --> source: public org.matsim.contrib.dvrp.vrpagent.VrpAgentSource ch.ethz.matsim.av.framework.AVQSimModule.provideAgentSource(ch.ethz.matsim.av.vrpagent.AVActionCreator,ch.ethz.matsim.av.data.AVData,ch.ethz.matsim.av.schedule.AVOptimizer,org.matsim.vehicles.VehicleType,org.matsim.core.mobsim.qsim.QSim)
2019-05-01 23:27:19,267  INFO Injector:88   --> scope: Scopes.SINGLETON
2019-05-01 23:27:19,267  INFO Injector:92 
2019-05-01 23:27:19,267  INFO Injector:84 org.matsim.core.mobsim.qsim.interfaces.Netsim 
2019-05-01 23:27:19,267  INFO Injector:85   --> provider: FactoryProxy{key=Key[type=org.matsim.core.mobsim.qsim.interfaces.Netsim, annotation=[none]], provider=com.google.inject.internal.ConstructorBindingImpl$Factory@571ae6d5[Scopes.SINGLETON]}
2019-05-01 23:27:19,267  INFO Injector:86   --> source: org.matsim.core.mobsim.qsim.QSimProvider$1.configure(QSimProvider.java:65)
2019-05-01 23:27:19,267  INFO Injector:88   --> scope: Scopes.NO_SCOPE
2019-05-01 23:27:19,267  INFO Injector:92 
2019-05-01 23:27:19,267  INFO Injector:84 org.matsim.core.mobsim.jdeqsim.MessageQueue 
2019-05-01 23:27:19,267  INFO Injector:85   --> provider: com.google.inject.internal.ConstructorBindingImpl$Factory@2954dc9e[Scopes.SINGLETON]
2019-05-01 23:27:19,267  INFO Injector:86   --> source: org.matsim.core.mobsim.qsim.messagequeueengine.MessageQueuePlugin$1.configure(MessageQueuePlugin.java:24)
2019-05-01 23:27:19,267  INFO Injector:88   --> scope: eager singleton
2019-05-01 23:27:19,267  INFO Injector:92 
2019-05-01 23:27:19,267  INFO Injector:84 org.matsim.core.mobsim.qsim.jdeqsimengine.SteppableScheduler 
2019-05-01 23:27:19,267  INFO Injector:85   --> provider: com.google.inject.internal.ConstructorBindingImpl$Factory@b2f23e4[Scopes.SINGLETON]
2019-05-01 23:27:19,267  INFO Injector:86   --> source: org.matsim.core.mobsim.qsim.messagequeueengine.MessageQueuePlugin$1.configure(MessageQueuePlugin.java:25)
2019-05-01 23:27:19,267  INFO Injector:88   --> scope: eager singleton
2019-05-01 23:27:19,267  INFO Injector:92 
2019-05-01 23:27:19,267  INFO Injector:84 org.matsim.core.mobsim.qsim.messagequeueengine.MessageQueueEngine 
2019-05-01 23:27:19,267  INFO Injector:85   --> provider: com.google.inject.internal.ConstructorBindingImpl$Factory@697b20d5[Scopes.SINGLETON]
2019-05-01 23:27:19,267  INFO Injector:86   --> source: org.matsim.core.mobsim.qsim.messagequeueengine.MessageQueuePlugin$1.configure(MessageQueuePlugin.java:26)
2019-05-01 23:27:19,267  INFO Injector:88   --> scope: eager singleton
2019-05-01 23:27:19,267  INFO Injector:92 
2019-05-01 23:27:19,267  INFO Injector:84 org.matsim.contrib.dynagent.run.DynActivityEngine 
2019-05-01 23:27:19,267  INFO Injector:85   --> provider: com.google.inject.internal.ConstructorBindingImpl$Factory@29f94b59[Scopes.SINGLETON]
2019-05-01 23:27:19,267  INFO Injector:86   --> source: org.matsim.contrib.dynagent.run.DynActivityEnginePlugin$1.configure(DynActivityEnginePlugin.java:24)
2019-05-01 23:27:19,267  INFO Injector:88   --> scope: eager singleton
2019-05-01 23:27:19,267  INFO Injector:92 
2019-05-01 23:27:19,267  INFO Injector:84 org.matsim.core.mobsim.qsim.qnetsimengine.QNetsimEngine 
2019-05-01 23:27:19,267  INFO Injector:85   --> provider: com.google.inject.internal.ConstructorBindingImpl$Factory@70e9af2b[Scopes.SINGLETON]
2019-05-01 23:27:19,267  INFO Injector:86   --> source: org.matsim.core.mobsim.qsim.qnetsimengine.QNetsimEnginePlugin$1.configure(QNetsimEnginePlugin.java:24)
2019-05-01 23:27:19,267  INFO Injector:88   --> scope: eager singleton
2019-05-01 23:27:19,267  INFO Injector:92 
2019-05-01 23:27:19,267  INFO Injector:84 org.matsim.core.mobsim.qsim.DefaultTeleportationEngine 
2019-05-01 23:27:19,267  INFO Injector:85   --> provider: com.google.inject.internal.ConstructorBindingImpl$Factory@172741cc[Scopes.SINGLETON]
2019-05-01 23:27:19,267  INFO Injector:86   --> source: org.matsim.core.mobsim.qsim.TeleportationPlugin$1.configure(TeleportationPlugin.java:21)
2019-05-01 23:27:19,267  INFO Injector:88   --> scope: eager singleton
2019-05-01 23:27:19,267  INFO Injector:92 
2019-05-01 23:27:19,271  INFO Injector:84 org.matsim.core.mobsim.qsim.agents.PopulationAgentSource 
2019-05-01 23:27:19,271  INFO Injector:85   --> provider: com.google.inject.internal.ConstructorBindingImpl$Factory@6f7d5b8a[Scopes.SINGLETON]
2019-05-01 23:27:19,271  INFO Injector:86   --> source: org.matsim.core.mobsim.qsim.PopulationPlugin$1.configure(PopulationPlugin.java:26)
2019-05-01 23:27:19,271  INFO Injector:88   --> scope: eager singleton
2019-05-01 23:27:19,271  INFO Injector:92 
2019-05-01 23:27:19,271  INFO Injector:84 org.matsim.core.mobsim.qsim.QSim 
2019-05-01 23:27:19,271  INFO Injector:85   --> provider: com.google.inject.internal.ConstructorBindingImpl$Factory@571ae6d5[Scopes.SINGLETON]
2019-05-01 23:27:19,271  INFO Injector:86   --> source: org.matsim.core.mobsim.qsim.QSimProvider$1.configure(QSimProvider.java:64)
2019-05-01 23:27:19,271  INFO Injector:88   --> scope: eager singleton
2019-05-01 23:27:19,271  INFO Injector:92 
2019-05-01 23:27:19,271  INFO Injector:95 === printInjector end ===
2019-05-01 23:27:19,271  INFO MobsimListenerManager:49 calling addQueueSimulationListener
2019-05-01 23:27:19,271  INFO MobsimListenerManager:53   assigned class org.matsim.core.mobsim.framework.listeners.MobsimListener to interface org.matsim.core.mobsim.framework.listeners.MobsimBeforeSimStepListener
2019-05-01 23:27:19,271  INFO MobsimListenerManager:53   assigned class org.matsim.core.mobsim.framework.listeners.MobsimListener to interface org.matsim.core.mobsim.qsim.messagequeueengine.MessageQueueEngine
2019-05-01 23:27:19,271  INFO MobsimListenerManager:53   assigned class org.matsim.core.mobsim.framework.listeners.MobsimListener to interface org.matsim.core.mobsim.framework.listeners.MobsimListener
2019-05-01 23:27:19,383  INFO PreProcessDijkstra:118 nodes in dead ends: 1519 (total nodes: 24743). Done in 36 ms
2019-05-01 23:27:19,387 DEBUG PreProcessEuclidean:80 link 40485 has length 444.4756079293716 which is smaller than the euclidean distance 444.4756079293717
2019-05-01 23:27:19,391  WARN PreProcessEuclidean:59 There are links with stored length smaller than their Euclidean distance in this network. Thus, A* cannot guarantee to calculate the least-cost paths between two nodes.
2019-05-01 23:27:19,397  INFO PreProcessLandmarks:112 Putting landmarks on network...
2019-05-01 23:27:19,405  INFO LandmarkerPieSlices:96 Filling sectors...
2019-05-01 23:27:19,433  INFO LandmarkerPieSlices:107 Refining landmarks...
2019-05-01 23:27:19,433  INFO LandmarkerPieSlices:109 done
2019-05-01 23:27:19,433  INFO PreProcessLandmarks:115 done in 36 ms
2019-05-01 23:27:19,433  INFO PreProcessLandmarks:117 Initializing landmarks data
2019-05-01 23:27:19,441  INFO PreProcessLandmarks:129 Calculating distance from each node to each of the 16 landmarks using 8 threads...
2019-05-01 23:27:19,441  INFO PreProcessLandmarks:139 wait for landmarks Calculator to finish...
2019-05-01 23:27:19,693  INFO PreProcessLandmarks:161 done in 252 ms
2019-05-01 23:27:19,709  INFO EventsManagerImpl:134  event # 1
2019-05-01 23:27:19,709  INFO EventsManagerImpl:134  event # 4
2019-05-01 23:27:19,709  INFO EventsManagerImpl:134  event # 16
2019-05-01 23:27:19,709  INFO EventsManagerImpl:134  event # 64
2019-05-01 23:27:19,709  INFO EventsManagerImpl:134  event # 256
2019-05-01 23:27:19,713  INFO MobsimListenerManager:49 calling addQueueSimulationListener
2019-05-01 23:27:19,713  INFO MobsimListenerManager:53   assigned class org.matsim.core.mobsim.framework.listeners.MobsimListener to interface org.matsim.core.mobsim.framework.listeners.MobsimBeforeSimStepListener
2019-05-01 23:27:19,713  INFO MobsimListenerManager:53   assigned class org.matsim.core.mobsim.framework.listeners.MobsimListener to interface ch.ethz.matsim.av.schedule.AVOptimizer
2019-05-01 23:27:19,713  INFO MobsimListenerManager:53   assigned class org.matsim.core.mobsim.framework.listeners.MobsimListener to interface org.matsim.core.mobsim.framework.listeners.MobsimListener
2019-05-01 23:27:19,713  INFO MobsimListenerManager:49 calling addQueueSimulationListener
2019-05-01 23:27:19,713  INFO MobsimListenerManager:53   assigned class org.matsim.core.mobsim.framework.listeners.MobsimListener to interface org.matsim.core.mobsim.framework.listeners.MobsimBeforeSimStepListener
2019-05-01 23:27:19,713  INFO MobsimListenerManager:53   assigned class org.matsim.core.mobsim.framework.listeners.MobsimListener to interface ch.ethz.matsim.av.dispatcher.AVDispatchmentListener
2019-05-01 23:27:19,713  INFO MobsimListenerManager:53   assigned class org.matsim.core.mobsim.framework.listeners.MobsimListener to interface org.matsim.core.mobsim.framework.listeners.MobsimListener
[...]
2019-05-01 23:34:03,259  INFO Gbl:54 used RAM: 599763768B = 585706kB = 571MB  free: 665867464B = 635MB  total: 1265631232B = 1207MB
2019-05-01 23:35:31,201  INFO EventsManagerImpl:134  event # 262144
2019-05-01 23:36:32,075  INFO QNetsimEngine:347 SIMULATION (QNetsimEngine) AT 07:00:00 : #links=125 #nodes=25
2019-05-01 23:36:32,075  INFO QSim:506 SIMULATION (NEW QSim) AT 07:00:00 : #Veh=20496 lost=0 simT=25200.0s realT=552s; (s/r): 45.65217391304348
2019-05-01 23:36:32,075  INFO Gbl:54 used RAM: 669713368B = 654016kB = 638MB  free: 322763816B = 307MB  total: 992477184B = 946MB
2019-05-01 23:52:30,526  INFO QNetsimEngine:347 SIMULATION (QNetsimEngine) AT 08:00:00 : #links=128 #nodes=31
2019-05-01 23:52:30,526  INFO QSim:506 SIMULATION (NEW QSim) AT 08:00:00 : #Veh=20055 lost=0 simT=28800.0s realT=1511s; (s/r): 19.060225016545335
2019-05-01 23:52:30,526  INFO Gbl:54 used RAM: 535499840B = 522949kB = 510MB  free: 232057792B = 221MB  total: 767557632B = 732MB
2019-05-02 00:00:45,589  INFO QNetsimEngine:347 SIMULATION (QNetsimEngine) AT 09:00:00 : #links=169 #nodes=23
2019-05-02 00:00:45,589  INFO QSim:506 SIMULATION (NEW QSim) AT 09:00:00 : #Veh=19458 lost=0 simT=32400.0s realT=2006s; (s/r): 16.151545363908276
2019-05-02 00:00:45,589  INFO Gbl:54 used RAM: 500480192B = 488750kB = 477MB  free: 239290176B = 228MB  total: 739770368B = 705MB
2019-05-02 00:12:14,623  INFO QNetsimEngine:347 SIMULATION (QNetsimEngine) AT 10:00:00 : #links=189 #nodes=30
2019-05-02 00:12:14,623  INFO QSim:506 SIMULATION (NEW QSim) AT 10:00:00 : #Veh=18711 lost=0 simT=36000.0s realT=2695s; (s/r): 13.358070500927644
2019-05-02 00:12:14,623  INFO Gbl:54 used RAM: 569156400B = 555816kB = 542MB  free: 169565392B = 161MB  total: 738721792B = 704MB
2019-05-02 00:27:10,436  INFO Logger:? Database closed
2019-05-02 00:28:51,038  INFO QNetsimEngine:347 SIMULATION (QNetsimEngine) AT 11:00:00 : #links=238 #nodes=32
2019-05-02 00:28:51,038  INFO QSim:506 SIMULATION (NEW QSim) AT 11:00:00 : #Veh=17834 lost=0 simT=39600.0s realT=3691s; (s/r): 10.72879978325657
2019-05-02 00:28:51,038  INFO Gbl:54 used RAM: 627873144B = 613157kB = 598MB  free: 111897224B = 106MB  total: 739770368B = 705MB
2019-05-02 00:37:42,333  INFO QNetsimEngine:347 SIMULATION (QNetsimEngine) AT 12:00:00 : #links=200 #nodes=38
2019-05-02 00:37:42,333  INFO QSim:506 SIMULATION (NEW QSim) AT 12:00:00 : #Veh=16778 lost=0 simT=43200.0s realT=4223s; (s/r): 10.229694529955008
2019-05-02 00:37:42,333  INFO Gbl:54 used RAM: 663751208B = 648194kB = 633MB  free: 76019160B = 72MB  total: 739770368B = 705MB
2019-05-02 00:41:51,303  INFO EventsManagerImpl:134  event # 1048576
2019-05-02 00:44:30,063  INFO QNetsimEngine:347 SIMULATION (QNetsimEngine) AT 13:00:00 : #links=192 #nodes=30
2019-05-02 00:44:30,063  INFO QSim:506 SIMULATION (NEW QSim) AT 13:00:00 : #Veh=15827 lost=0 simT=46800.0s realT=4630s; (s/r): 10.107991360691145
2019-05-02 00:44:30,063  INFO Gbl:54 used RAM: 686632936B = 670539kB = 654MB  free: 52088856B = 49MB  total: 738721792B = 704MB
2019-05-02 00:50:51,684  INFO QNetsimEngine:347 SIMULATION (QNetsimEngine) AT 14:00:00 : #links=193 #nodes=37
2019-05-02 00:50:51,684  INFO QSim:506 SIMULATION (NEW QSim) AT 14:00:00 : #Veh=14803 lost=0 simT=50400.0s realT=5012s; (s/r): 10.05586592178771
2019-05-02 00:50:51,684  INFO Gbl:54 used RAM: 687476280B = 671363kB = 655MB  free: 51769800B = 49MB  total: 739246080B = 705MB
2019-05-02 00:56:22,091  INFO QNetsimEngine:347 SIMULATION (QNetsimEngine) AT 15:00:00 : #links=185 #nodes=37
2019-05-02 00:56:22,092  INFO QSim:506 SIMULATION (NEW QSim) AT 15:00:00 : #Veh=13809 lost=0 simT=54000.0s realT=5342s; (s/r): 10.108573567952078
2019-05-02 00:56:22,092  INFO Gbl:54 used RAM: 585346504B = 571627kB = 558MB  free: 377770552B = 360MB  total: 963117056B = 918MB
2019-05-02 01:02:42,311  INFO QNetsimEngine:347 SIMULATION (QNetsimEngine) AT 16:00:00 : #links=189 #nodes=14
2019-05-02 01:02:42,311  INFO QSim:506 SIMULATION (NEW QSim) AT 16:00:00 : #Veh=12796 lost=0 simT=57600.0s realT=5723s; (s/r): 10.064651406604927
2019-05-02 01:02:42,311  INFO Gbl:54 used RAM: 612758928B = 598397kB = 584MB  free: 390204016B = 372MB  total: 1002962944B = 956MB
2019-05-02 01:06:38,447  INFO QNetsimEngine:347 SIMULATION (QNetsimEngine) AT 17:00:00 : #links=148 #nodes=24
2019-05-02 01:06:38,447  INFO QSim:506 SIMULATION (NEW QSim) AT 17:00:00 : #Veh=11886 lost=0 simT=61200.0s realT=5959s; (s/r): 10.270179560328915
2019-05-02 01:06:38,447  INFO Gbl:54 used RAM: 544763952B = 531996kB = 519MB  free: 496472016B = 473MB  total: 1041235968B = 993MB
2019-05-02 01:20:46,791  INFO QNetsimEngine:347 SIMULATION (QNetsimEngine) AT 18:00:00 : #links=192 #nodes=29
2019-05-02 01:20:46,791  INFO QSim:506 SIMULATION (NEW QSim) AT 18:00:00 : #Veh=10914 lost=0 simT=64800.0s realT=6807s; (s/r): 9.519612163948876
2019-05-02 01:20:46,791  INFO Gbl:54 used RAM: 721666112B = 704752kB = 688MB  free: 346308544B = 330MB  total: 1067974656B = 1018MB
2019-05-02 01:54:47,180  INFO QNetsimEngine:347 SIMULATION (QNetsimEngine) AT 19:00:00 : #links=220 #nodes=31
2019-05-02 01:54:47,181  INFO QSim:506 SIMULATION (NEW QSim) AT 19:00:00 : #Veh=9613 lost=0 simT=68400.0s realT=8848s; (s/r): 7.730560578661844
2019-05-02 01:54:47,181  INFO Gbl:54 used RAM: 887708752B = 866903kB = 846MB  free: 324969392B = 309MB  total: 1212678144B = 1156MB
2019-05-02 02:05:45,078  INFO QNetsimEngine:347 SIMULATION (QNetsimEngine) AT 20:00:00 : #links=251 #nodes=45
2019-05-02 02:05:45,079  INFO QSim:506 SIMULATION (NEW QSim) AT 20:00:00 : #Veh=8080 lost=0 simT=72000.0s realT=9505s; (s/r): 7.574960547080484
2019-05-02 02:05:45,079  INFO Gbl:54 used RAM: 850041552B = 830118kB = 810MB  free: 419783984B = 400MB  total: 1269825536B = 1211MB
2019-05-02 02:18:57,999  INFO QNetsimEngine:347 SIMULATION (QNetsimEngine) AT 21:00:00 : #links=238 #nodes=39
2019-05-02 02:18:57,999  INFO QSim:506 SIMULATION (NEW QSim) AT 21:00:00 : #Veh=6302 lost=0 simT=75600.0s realT=10298s; (s/r): 7.341231307049912
2019-05-02 02:18:57,999  INFO Gbl:54 used RAM: 802389480B = 783583kB = 765MB  free: 496796184B = 473MB  total: 1299185664B = 1239MB
2019-05-02 02:27:47,839  INFO QNetsimEngine:347 SIMULATION (QNetsimEngine) AT 22:00:00 : #links=234 #nodes=37
2019-05-02 02:27:47,840  INFO QSim:506 SIMULATION (NEW QSim) AT 22:00:00 : #Veh=4565 lost=0 simT=79200.0s realT=10828s; (s/r): 7.31437015145918
2019-05-02 02:27:47,840  INFO Gbl:54 used RAM: 1240266960B = 1211198kB = 1182MB  free: 421201712B = 401MB  total: 1661468672B = 1584MB
2019-05-02 02:37:09,445  INFO QNetsimEngine:347 SIMULATION (QNetsimEngine) AT 23:00:00 : #links=245 #nodes=55
2019-05-02 02:37:09,445  INFO QSim:506 SIMULATION (NEW QSim) AT 23:00:00 : #Veh=2830 lost=0 simT=82800.0s realT=11390s; (s/r): 7.269534679543459
2019-05-02 02:37:09,446  INFO Gbl:54 used RAM: 928587864B = 906824kB = 885MB  free: 747560872B = 712MB  total: 1676148736B = 1598MB
2019-05-02 02:44:57,899  INFO QNetsimEngine:347 SIMULATION (QNetsimEngine) AT 24:00:00 : #links=230 #nodes=49
2019-05-02 02:44:57,900  INFO QSim:506 SIMULATION (NEW QSim) AT 24:00:00 : #Veh=908 lost=0 simT=86400.0s realT=11858s; (s/r): 7.28622027323326
2019-05-02 02:44:57,900  INFO Gbl:54 used RAM: 923454272B = 901810kB = 880MB  free: 766850240B = 731MB  total: 1690304512B = 1612MB
2019-05-02 02:45:16,170  INFO QNetsimEngine:347 SIMULATION (QNetsimEngine) AT 25:00:00 : #links=1 #nodes=0
2019-05-02 02:45:16,171  INFO QSim:506 SIMULATION (NEW QSim) AT 25:00:00 : #Veh=501 lost=0 simT=90000.0s realT=11877s; (s/r): 7.577671129072998
2019-05-02 02:45:16,171  INFO Gbl:54 used RAM: 1035025440B = 1010767kB = 987MB  free: 662094816B = 631MB  total: 1697120256B = 1618MB
2019-05-02 02:45:20,558  INFO QNetsimEngine:347 SIMULATION (QNetsimEngine) AT 26:00:00 : #links=0 #nodes=0
2019-05-02 02:45:20,559  INFO QSim:506 SIMULATION (NEW QSim) AT 26:00:00 : #Veh=500 lost=0 simT=93600.0s realT=11881s; (s/r): 7.8781247369750025
2019-05-02 02:45:20,559  INFO Gbl:54 used RAM: 1335677368B = 1304372kB = 1273MB  free: 366161480B = 349MB  total: 1701838848B = 1623MB
2019-05-02 02:45:24,855  INFO QNetsimEngine:347 SIMULATION (QNetsimEngine) AT 27:00:00 : #links=0 #nodes=0
2019-05-02 02:45:24,856  INFO QSim:506 SIMULATION (NEW QSim) AT 27:00:00 : #Veh=500 lost=0 simT=97200.0s realT=11885s; (s/r): 8.178376104333193
2019-05-02 02:45:24,856  INFO Gbl:54 used RAM: 785065400B = 766665kB = 748MB  free: 929880648B = 886MB  total: 1714946048B = 1635MB
2019-05-02 02:45:29,197  INFO QNetsimEngine:347 SIMULATION (QNetsimEngine) AT 28:00:00 : #links=0 #nodes=0
2019-05-02 02:45:29,197  INFO QSim:506 SIMULATION (NEW QSim) AT 28:00:00 : #Veh=500 lost=0 simT=100800.0s realT=11890s; (s/r): 8.47771236333053
2019-05-02 02:45:29,197  INFO Gbl:54 used RAM: 1024356336B = 1000347kB = 976MB  free: 704745488B = 672MB  total: 1729101824B = 1649MB
2019-05-02 02:45:33,547  INFO QNetsimEngine:347 SIMULATION (QNetsimEngine) AT 29:00:00 : #links=0 #nodes=0
2019-05-02 02:45:33,547  INFO QSim:506 SIMULATION (NEW QSim) AT 29:00:00 : #Veh=500 lost=0 simT=104400.0s realT=11894s; (s/r): 8.777534891541954
2019-05-02 02:45:33,547  INFO Gbl:54 used RAM: 1232235584B = 1203355kB = 1175MB  free: 503681984B = 480MB  total: 1735917568B = 1655MB
2019-05-02 02:45:37,931  INFO QNetsimEngine:347 SIMULATION (QNetsimEngine) AT 30:00:00 : #links=0 #nodes=0
2019-05-02 02:45:37,931  INFO QSim:506 SIMULATION (NEW QSim) AT 30:00:00 : #Veh=500 lost=0 simT=108000.0s realT=11898s; (s/r): 9.07715582450832
2019-05-02 02:45:37,931  INFO Gbl:54 used RAM: 1413616128B = 1380484kB = 1348MB  free: 334360064B = 318MB  total: 1747976192B = 1667MB
2019-05-02 02:45:38,373  INFO Gbl:187 Thread performance: Thread=class org.matsim.core.events.SimStepParallelEventsManagerImpl$ProcessEventsRunnable0  cpu-time=15.3125sec
2019-05-02 02:45:38,376  INFO AbstractController$8:215 ### ITERATION 0 fires after mobsim event
2019-05-02 02:45:38,377  INFO ControlerListenerManagerImpl:248 calling notifyAfterMobsim on org.matsim.analysis.LegTimesControlerListener
2019-05-02 02:45:38,384  INFO LegTimesControlerListener:50 [0] average trip (probably: leg) duration is: 589 seconds = 00:09:49
2019-05-02 02:45:38,384  INFO ControlerListenerManagerImpl:248 calling notifyAfterMobsim on org.matsim.core.scoring.EventsToActivities$1
2019-05-02 02:45:38,429  INFO ControlerListenerManagerImpl:251 [it.0] all ControlerAfterMobsimListeners called.
2019-05-02 02:45:38,430  INFO AbstractController$4:152 ### ITERATION 0 fires scoring event
2019-05-02 02:45:38,430  INFO ControlerListenerManagerImpl:183 calling notifyScoring on org.matsim.core.scoring.PlansScoringImpl
2019-05-02 02:45:38,444  INFO NewScoreAssignerImpl:36 it: 0 msaStart: null
2019-05-02 02:45:38,455  INFO ControlerListenerManagerImpl:194 [it.0] all ControlerScoringListeners called.
2019-05-02 02:45:38,456  INFO AbstractController$5:160 ### ITERATION 0 fires iteration end event
2019-05-02 02:45:38,456  INFO ControlerListenerManagerImpl:160 calling notifyIterationEnds on org.matsim.core.controler.corelisteners.EventsHandlingImpl
2019-05-02 02:45:38,459  INFO EventsManagerImpl:161 removing Event-Handler: org.matsim.core.events.algorithms.EventWriterXML
2019-05-02 02:45:38,459  INFO EventsManagerImpl:161 removing Event-Handler: org.matsim.core.events.algorithms.EventWriterXML
2019-05-02 02:45:38,459  INFO ControlerListenerManagerImpl:160 calling notifyIterationEnds on org.matsim.core.scoring.PlansScoringImpl
2019-05-02 02:45:38,469  INFO PopulationImpl:112  person # 1
2019-05-02 02:45:38,469  INFO PopulationImpl:112  person # 4
2019-05-02 02:45:38,469  INFO PopulationImpl:112  person # 16
2019-05-02 02:45:38,469  INFO PopulationImpl:112  person # 64
2019-05-02 02:45:38,469  INFO PopulationImpl:112  person # 256
2019-05-02 02:45:38,469  INFO PopulationImpl:112  person # 1024
2019-05-02 02:45:38,471  INFO PopulationImpl:112  person # 4096
2019-05-02 02:45:38,474  INFO PopulationImpl:112  person # 16384
2019-05-02 02:45:38,484  INFO Counter:61 [PopulationWriter] dumped person # 1
2019-05-02 02:45:38,485  INFO Counter:61 [PopulationWriter] dumped person # 2
2019-05-02 02:45:38,485  INFO Counter:61 [PopulationWriter] dumped person # 4
2019-05-02 02:45:38,485  INFO Counter:61 [PopulationWriter] dumped person # 8
2019-05-02 02:45:38,485  INFO Counter:61 [PopulationWriter] dumped person # 16
2019-05-02 02:45:38,485  INFO Counter:61 [PopulationWriter] dumped person # 32
2019-05-02 02:45:38,486  INFO Counter:61 [PopulationWriter] dumped person # 64
2019-05-02 02:45:38,487  INFO Counter:61 [PopulationWriter] dumped person # 128
2019-05-02 02:45:38,489  INFO Counter:61 [PopulationWriter] dumped person # 256
2019-05-02 02:45:38,494  INFO Counter:61 [PopulationWriter] dumped person # 512
2019-05-02 02:45:38,502  INFO Counter:61 [PopulationWriter] dumped person # 1024
2019-05-02 02:45:38,518  INFO Counter:61 [PopulationWriter] dumped person # 2048
2019-05-02 02:45:38,559  INFO Counter:61 [PopulationWriter] dumped person # 4096
2019-05-02 02:45:38,629  INFO Counter:61 [PopulationWriter] dumped person # 8192
2019-05-02 02:45:38,781  INFO Counter:61 [PopulationWriter] dumped person # 16384
2019-05-02 02:45:38,858  INFO PopulationWriter:139 Population written to: output/001/ITERS/it.0/0.experienced_plans.xml.gz
2019-05-02 02:45:38,861  INFO Counter:67 [PopulationWriter] dumped person # 21562
2019-05-02 02:45:38,999  INFO ControlerListenerManagerImpl:167 calling notifyIterationEnds on org.matsim.counts.CountsControlerListener
2019-05-02 02:45:38,999  INFO ControlerListenerManagerImpl:167 calling notifyIterationEnds on org.matsim.analysis.ModeStatsControlerListener
2019-05-02 02:45:39,015  INFO ModeStatsControlerListener:155 -- mode share of mode av = 1.0
2019-05-02 02:45:39,015  INFO ModeStatsControlerListener:155 -- mode share of mode bike = 0.0
2019-05-02 02:45:39,015  INFO ModeStatsControlerListener:155 -- mode share of mode car = 0.0
2019-05-02 02:45:39,015  INFO ModeStatsControlerListener:155 -- mode share of mode other = 0.0
2019-05-02 02:45:39,015  INFO ModeStatsControlerListener:155 -- mode share of mode pt = 0.0
2019-05-02 02:45:39,015  INFO ModeStatsControlerListener:155 -- mode share of mode ride = 0.0
2019-05-02 02:45:39,015  INFO ModeStatsControlerListener:155 -- mode share of mode walk = 0.0
2019-05-02 02:45:39,015  INFO ControlerListenerManagerImpl:167 calling notifyIterationEnds on org.matsim.analysis.ScoreStatsControlerListener
2019-05-02 02:45:39,021  INFO ScoreStatsControlerListener:191 -- avg. score of the executed plan of each agent: 58.008069543181705
2019-05-02 02:45:39,021  INFO ScoreStatsControlerListener:192 -- avg. score of the worst plan of each agent: 58.008069543181705
2019-05-02 02:45:39,021  INFO ScoreStatsControlerListener:193 -- avg. of the avg. plan score per agent: 58.008069543181705
2019-05-02 02:45:39,021  INFO ScoreStatsControlerListener:194 -- avg. score of the best plan of each agent: 58.008069543181705
2019-05-02 02:45:39,021  INFO ControlerListenerManagerImpl:167 calling notifyIterationEnds on org.matsim.analysis.TravelDistanceStatsControlerListener
2019-05-02 02:45:39,023  INFO TravelDistanceStats:128 [TravelDistanceStats] using 2 thread(s).
2019-05-02 02:45:39,033  INFO TravelDistanceStats:141 [TravelDistanceStats] all threads finished.
2019-05-02 02:45:39,033  INFO TravelDistanceStats:161 -- average of the average leg distance per plan (executed plans only): 0.0
2019-05-02 02:45:39,033  INFO TravelDistanceStats:162 (TravelDistanceStats takes an average over all legs where the simulation reports travelled distances. These are car legs, pt legs,
2019-05-02 02:45:39,033  INFO TravelDistanceStats:163 (and teleported legs whose route contains a distance.)
2019-05-02 02:45:39,033  INFO ControlerListenerManagerImpl:167 calling notifyIterationEnds on org.matsim.analysis.LegHistogramListener
2019-05-02 02:45:39,039  INFO LegHistogramListener:72 number of legs:	21562	100%
2019-05-02 02:45:39,039  INFO LegHistogramListener:79 number of av legs:	21562	100.0%
2019-05-02 02:45:39,524  INFO ControlerListenerManagerImpl:167 calling notifyIterationEnds on org.matsim.analysis.LinkStatsControlerListener
2019-05-02 02:45:39,525  INFO ControlerListenerManagerImpl:167 calling notifyIterationEnds on ch.ethz.idsc.amodeus.net.DatabaseIterationEndsListener
2019-05-02 02:45:39,525  INFO ControlerListenerManagerImpl:171 [it.0] all ControlerIterationEndsListeners called.
2019-05-02 02:45:39,704  INFO AbstractController:170 ### ITERATION 0 ENDS
2019-05-02 02:45:39,704  INFO AbstractController:171 ###################################################
2019-05-02 02:45:39,704  INFO MatsimRuntimeModifications:58 S H U T D O W N   ---   start shutdown.
2019-05-02 02:45:39,705  INFO ControlerListenerManagerImpl:121 calling notifyShutdown on org.matsim.core.controler.corelisteners.EventsHandlingImpl
2019-05-02 02:45:39,705  INFO ControlerListenerManagerImpl:121 calling notifyShutdown on org.matsim.core.controler.corelisteners.DumpDataAtEndImpl
2019-05-02 02:45:39,714  INFO Counter:61 [PopulationWriter] dumped person # 1
2019-05-02 02:45:39,714  INFO Counter:61 [PopulationWriter] dumped person # 2
2019-05-02 02:45:39,714  INFO Counter:61 [PopulationWriter] dumped person # 4
2019-05-02 02:45:39,714  INFO Counter:61 [PopulationWriter] dumped person # 8
2019-05-02 02:45:39,714  INFO Counter:61 [PopulationWriter] dumped person # 16
2019-05-02 02:45:39,715  INFO Counter:61 [PopulationWriter] dumped person # 32
2019-05-02 02:45:39,715  INFO Counter:61 [PopulationWriter] dumped person # 64
2019-05-02 02:45:39,717  INFO Counter:61 [PopulationWriter] dumped person # 128
2019-05-02 02:45:39,720  INFO Counter:61 [PopulationWriter] dumped person # 256
2019-05-02 02:45:39,727  INFO Counter:61 [PopulationWriter] dumped person # 512
2019-05-02 02:45:39,739  INFO Counter:61 [PopulationWriter] dumped person # 1024
2019-05-02 02:45:39,753  INFO Counter:61 [PopulationWriter] dumped person # 2048
2019-05-02 02:45:39,782  INFO Counter:61 [PopulationWriter] dumped person # 4096
2019-05-02 02:45:39,840  INFO Counter:61 [PopulationWriter] dumped person # 8192
2019-05-02 02:45:39,956  INFO Counter:61 [PopulationWriter] dumped person # 16384
2019-05-02 02:45:40,026  INFO PopulationWriter:139 Population written to: output/001/output_plans.xml.gz
2019-05-02 02:45:40,029  INFO Counter:67 [PopulationWriter] dumped person # 21562
2019-05-02 02:45:40,032  INFO NetworkWriter:68 Writing network to file: output/001/output_network.xml.gz...
2019-05-02 02:45:40,417  INFO NetworkWriter:71 done.
2019-05-02 02:45:40,417  INFO Config:561 setting context to [file:/C:/Users/tl456/Desktop/Duckie/amod-master/]
2019-05-02 02:45:40,493  INFO VehicleWriterV1:55 Vehicles written to: output/001/output_vehicles.xml.gz
2019-05-02 02:45:40,495  INFO Counter:67 [HouseholdsWriter] dumped household # 0
2019-05-02 02:45:40,501  INFO LanesWriter:65 Using LaneDefinitionWriter20...
2019-05-02 02:45:40,501  INFO LanesWriter:74 writing to file: output/001/output_lanes.xml.gz
2019-05-02 02:45:40,598  INFO ControlerListenerManagerImpl:126 calling notifyShutdown on org.matsim.analysis.ModeStatsControlerListener
2019-05-02 02:45:40,601  INFO ControlerListenerManagerImpl:126 calling notifyShutdown on org.matsim.analysis.ScoreStatsControlerListener
2019-05-02 02:45:40,604  INFO ControlerListenerManagerImpl:126 calling notifyShutdown on org.matsim.analysis.TravelDistanceStatsControlerListener
2019-05-02 02:45:40,607  INFO ControlerListenerManagerImpl:126 calling notifyShutdown on ch.ethz.matsim.av.router.AVRouterShutdownListener
2019-05-02 02:45:40,607  INFO ControlerListenerManagerImpl:129 all ControlerShutdownListeners called.
2019-05-02 02:45:40,607  INFO MatsimRuntimeModifications:81 S H U T D O W N   ---   shutdown completed.
2019-05-02 02:45:40,608  INFO OutputDirectoryLogging:146 closing the logfile, i.e. messages sent to the logger after this message are not written to the logfile.
